version 3
run Static-0-20231127-19:47:46-39316
attr configname Static
attr datetime 20231127-19:47:46
attr datetimef 20231127-194746
attr experiment Static
attr inifile omnetpp.ini
attr iterationvars ""
attr iterationvarsd ""
attr iterationvarsf ""
attr measurement ""
attr network AODVNetwork
attr processid 39316
attr repetition 0
attr replication #0
attr resultdir results
attr runnumber 0
attr seedset 0
config image-path ../../../../inet-4.3.5/inet-4.3.5/images;../../../../veins-5.2/veins-veins-5.2/images
config description "routing without mobility"
config *.host[*].wlan[*].radio.transmitter.communicationRange 250m
config *.host[0].app[0].destAddr "\"host[1](ipv4)\""
config network AODVNetwork
config num-rngs 3
config **.mobility.rng-0 1
config **.wlan[*].mac.rng-0 2
config **.wlan[*].typename AckingWirelessInterface
config **.wlan[*].bitrate 2Mbps
config **.wlan[*].mac.headerLength 23B
config **.wlan[*].radio.typename UnitDiskRadio
config **.wlan[*].radio.transmitter.headerLength 96b
config **.wlan[*].radio.transmitter.communicationRange 250m
config **.wlan[*].radio.transmitter.interferenceRange 0m
config **.wlan[*].radio.transmitter.detectionRange 0m
config **.wlan[*].radio.receiver.ignoreInterference true
config *.numHosts 20
config **.host[*].mobility.typename StationaryMobility
config **.mobility.constraintAreaMinZ 0m
config **.mobility.constraintAreaMaxZ 0m
config **.mobility.constraintAreaMinX 0m
config **.mobility.constraintAreaMinY 0m
config **.mobility.constraintAreaMaxX 600m
config **.mobility.constraintAreaMaxY 600m
config *.host[0].numApps 1
config *.host[0].app[0].typename PingApp
config *.host[0].app[0].startTime uniform(1s,5s)
config *.host[0].app[0].printPing true
config **.wlan[*].bitrate 2Mbps
config **.hasStatus true

par AODVNetwork.radioMedium.propagation typename "\"inet.physicallayer.wireless.common.propagation.ConstantSpeedPropagation\""
par AODVNetwork.radioMedium.propagation propagationSpeed 2.99792e+08mps
attr unit mps
par AODVNetwork.radioMedium.propagation ignoreMovementDuringTransmission true
par AODVNetwork.radioMedium.propagation ignoreMovementDuringPropagation true
par AODVNetwork.radioMedium.propagation ignoreMovementDuringReception true
scalar AODVNetwork.radioMedium.propagation "Arrival computation count" 0
par AODVNetwork.radioMedium.analogModel typename "\"inet.physicallayer.wireless.unitdisk.UnitDiskAnalogModel\""
par AODVNetwork.radioMedium.pathLoss typename "\"inet.physicallayer.wireless.common.pathloss.FreeSpacePathLoss\""
par AODVNetwork.radioMedium.pathLoss alpha 2
par AODVNetwork.radioMedium.pathLoss systemLoss 0dB
attr unit dB
par AODVNetwork.radioMedium.mediumLimitCache typename "\"inet.physicallayer.wireless.common.medium.MediumLimitCache\""
par AODVNetwork.radioMedium.mediumLimitCache centerFrequency "nan Hz"
attr unit Hz
par AODVNetwork.radioMedium.mediumLimitCache maxSpeed "nan mps"
attr unit mps
par AODVNetwork.radioMedium.mediumLimitCache maxTransmissionPower "nan W"
attr unit W
par AODVNetwork.radioMedium.mediumLimitCache minInterferencePower "nan dBm"
attr unit dBm
par AODVNetwork.radioMedium.mediumLimitCache minReceptionPower "nan dBm"
attr unit dBm
par AODVNetwork.radioMedium.mediumLimitCache maxAntennaGain 0dB
attr unit dB
par AODVNetwork.radioMedium.mediumLimitCache minInterferenceTime 1e-12s
attr unit s
par AODVNetwork.radioMedium.mediumLimitCache maxTransmissionDuration 0.01s
attr unit s
par AODVNetwork.radioMedium.mediumLimitCache maxCommunicationRange "nan m"
attr unit m
par AODVNetwork.radioMedium.mediumLimitCache maxInterferenceRange "nan m"
attr unit m
par AODVNetwork.radioMedium.communicationCache typename "\"inet.physicallayer.wireless.common.communicationcache.VectorCommunicationCache\""
par AODVNetwork.radioMedium typename "\"inet.physicallayer.wireless.unitdisk.UnitDiskRadioMedium\""
par AODVNetwork.radioMedium physicalEnvironmentModule "\"physicalEnvironment\""
par AODVNetwork.radioMedium signalAnalogRepresentation "\"unitDisk\""
attr enum unitDisk,scalar,dimensional
par AODVNetwork.radioMedium rangeFilter "\"\""
par AODVNetwork.radioMedium radioModeFilter false
par AODVNetwork.radioMedium listeningFilter false
par AODVNetwork.radioMedium macAddressFilter false
par AODVNetwork.radioMedium recordTransmissionLog false
par AODVNetwork.radioMedium recordReceptionLog false
scalar AODVNetwork.radioMedium "transmission count" 0
scalar AODVNetwork.radioMedium "signal send count" 0
scalar AODVNetwork.radioMedium "reception computation count" 0
scalar AODVNetwork.radioMedium "interference computation count" 20
scalar AODVNetwork.radioMedium "reception decision computation count" 0
scalar AODVNetwork.radioMedium "listening decision computation count" 20
scalar AODVNetwork.radioMedium "reception cache hit" nan
attr unit %
scalar AODVNetwork.radioMedium "interference cache hit" nan
attr unit %
scalar AODVNetwork.radioMedium "noise cache hit" nan
attr unit %
scalar AODVNetwork.radioMedium "snir cache hit" nan
attr unit %
scalar AODVNetwork.radioMedium "reception decision cache hit" nan
attr unit %
scalar AODVNetwork.radioMedium "reception result cache hit" nan
attr unit %
par AODVNetwork.configurator typename "\"inet.networklayer.configurator.ipv4.Ipv4NetworkConfigurator\""
par AODVNetwork.configurator minLinkWeight 0.001
par AODVNetwork.configurator configureIsolatedNetworksSeparatly false
par AODVNetwork.configurator config "<config>...</config> at content:1"
par AODVNetwork.configurator assignAddresses true
par AODVNetwork.configurator assignUniqueAddresses true
par AODVNetwork.configurator assignDisjunctSubnetAddresses true
par AODVNetwork.configurator addStaticRoutes true
par AODVNetwork.configurator addDefaultRoutes true
par AODVNetwork.configurator addSubnetRoutes true
par AODVNetwork.configurator addDirectRoutes true
par AODVNetwork.configurator optimizeRoutes true
par AODVNetwork.configurator dumpTopology false
par AODVNetwork.configurator dumpLinks false
par AODVNetwork.configurator dumpAddresses false
par AODVNetwork.configurator dumpRoutes false
par AODVNetwork.configurator dumpConfig "\"\""
par AODVNetwork.routingTableRecorder typename "\"inet.networklayer.ipv4.RoutingTableRecorder\""
par AODVNetwork.routingTableRecorder enabled true
par AODVNetwork.scenarioManager typename "\"inet.common.scenario.ScenarioManager\""
par AODVNetwork.scenarioManager script "<scenario/> at content:1"
par AODVNetwork.host[0].radioIn[0].channel typename "\"ned.IdealChannel\""
par AODVNetwork.host[0].status typename "\"inet.common.lifecycle.NodeStatus\""
par AODVNetwork.host[0].status initialStatus "\"UP\""
par AODVNetwork.host[0].mobility typename "\"inet.mobility.static.StationaryMobility\""
par AODVNetwork.host[0].mobility subjectModule "\"^\""
par AODVNetwork.host[0].mobility coordinateSystemModule "\"\""
par AODVNetwork.host[0].mobility displayStringTextFormat "\"p: %p\\nv: %v\""
attr mutable ""
par AODVNetwork.host[0].mobility updateDisplayString true
par AODVNetwork.host[0].mobility constraintAreaMinX 0m
attr unit m
par AODVNetwork.host[0].mobility constraintAreaMinY 0m
attr unit m
par AODVNetwork.host[0].mobility constraintAreaMinZ 0m
attr unit m
par AODVNetwork.host[0].mobility constraintAreaMaxX 600m
attr unit m
par AODVNetwork.host[0].mobility constraintAreaMaxY 600m
attr unit m
par AODVNetwork.host[0].mobility constraintAreaMaxZ 0m
attr unit m
par AODVNetwork.host[0].mobility initialX 250.213m
attr unit m
par AODVNetwork.host[0].mobility initialY 598.311m
attr unit m
par AODVNetwork.host[0].mobility initialZ 0m
attr unit m
par AODVNetwork.host[0].mobility initialLatitude "nan deg"
attr unit deg
par AODVNetwork.host[0].mobility initialLongitude "nan deg"
attr unit deg
par AODVNetwork.host[0].mobility initialAltitude 0m
attr unit m
par AODVNetwork.host[0].mobility initialHeading 0deg
attr unit deg
par AODVNetwork.host[0].mobility initialElevation 0deg
attr unit deg
par AODVNetwork.host[0].mobility initialBank 0deg
attr unit deg
par AODVNetwork.host[0].mobility initFromDisplayString true
par AODVNetwork.host[0].mobility updateFromDisplayString true
par AODVNetwork.host[0].interfaceTable typename "\"inet.networklayer.common.InterfaceTable\""
par AODVNetwork.host[0].interfaceTable displayAddresses false
par AODVNetwork.host[0].li typename "\"inet.common.MessageDispatcher\""
par AODVNetwork.host[0].li displayStringTextFormat "\"processed %p pk (%l)\""
par AODVNetwork.host[0].lo[0].upperLayerIn.channel typename "\"ned.IdealChannel\""
par AODVNetwork.host[0].lo[0].lo.upperLayerOut.channel typename "\"ned.IdealChannel\""
par AODVNetwork.host[0].lo[0].lo typename "\"inet.linklayer.loopback.Loopback\""
par AODVNetwork.host[0].lo[0].lo interfaceTableModule "\"AODVNetwork.host[0].interfaceTable\""
par AODVNetwork.host[0].lo[0].lo mtu 4470B
attr unit B
scalar AODVNetwork.host[0].lo[0].lo rcvdPkFromHl:count 0
attr interpolationmode none
attr source packetReceivedFromUpper
attr title "packets received from higher layer, count"
scalar AODVNetwork.host[0].lo[0].lo rcvdPkFromHl:sum(packetBytes) 0
attr interpolationmode none
attr source packetReceivedFromUpper
attr title "packets received from higher layer, sum(packetBytes)"
scalar AODVNetwork.host[0].lo[0].lo passedUpPk:count 0
attr interpolationmode none
attr source packetSentToUpper
attr title "packets passed to higher layer, count"
scalar AODVNetwork.host[0].lo[0].lo passedUpPk:sum(packetBytes) 0
attr interpolationmode none
attr source packetSentToUpper
attr title "packets passed to higher layer, sum(packetBytes)"
par AODVNetwork.host[0].lo[0] typename "\"inet.linklayer.loopback.LoopbackInterface\""
par AODVNetwork.host[0].lo[0] displayStringTextFormat "\"%a (%i)\\n%m\""
par AODVNetwork.host[0].lo[0] recordPcap false
par AODVNetwork.host[0].lo[0] numPcapRecorders 0
par AODVNetwork.host[0].lo[0] interfaceTableModule "\"AODVNetwork.host[0].interfaceTable\""
par AODVNetwork.host[0].wlan[0].upperLayerIn.channel typename "\"ned.IdealChannel\""
par AODVNetwork.host[0].wlan[0].radioIn.channel typename "\"ned.IdealChannel\""
par AODVNetwork.host[0].wlan[0].mac.upperLayerOut.channel typename "\"ned.IdealChannel\""
par AODVNetwork.host[0].wlan[0].mac.queue typename "\"inet.queueing.queue.DropTailQueue\""
par AODVNetwork.host[0].wlan[0].mac.queue displayStringTextFormat "\"contains %p pk (%l) pushed %u\\npulled %o removed %r dropped %d\""
par AODVNetwork.host[0].wlan[0].mac.queue packetCapacity 100
par AODVNetwork.host[0].wlan[0].mac.queue dataCapacity -1b
attr unit b
par AODVNetwork.host[0].wlan[0].mac.queue dropperClass "\"inet::queueing::PacketAtCollectionEndDropper\""
par AODVNetwork.host[0].wlan[0].mac.queue comparatorClass "\"\""
par AODVNetwork.host[0].wlan[0].mac.queue bufferModule "\"\""
scalar AODVNetwork.host[0].wlan[0].mac.queue packetPulled:count 0
attr interpolationmode none
attr title "packet pulled, count"
scalar AODVNetwork.host[0].wlan[0].mac.queue packetPulled:sum(packetBytes) 0
attr interpolationmode none
attr title "packet pulled, sum(packetBytes)"
statistic AODVNetwork.host[0].wlan[0].mac.queue queueingTime:histogram
field count 0
field mean nan
field stddev nan
field min nan
field max nan
field sum 0
field sqrsum 0
attr interpolationmode none
attr source queueingTime(packetPulled)
attr title "queueing times, histogram"
attr unit s
bin	-inf	0
bin	0	0
bin	1	0
scalar AODVNetwork.host[0].wlan[0].mac.queue queueLength:max nan
attr autoWarmupFilter false
attr interpolationmode sample-hold
attr source "warmup(count(packetPushed) - count(packetPulled) - count(packetRemoved) - count(packetDropped))"
attr title "queue length, max"
attr type int
scalar AODVNetwork.host[0].wlan[0].mac.queue queueLength:timeavg nan
attr autoWarmupFilter false
attr interpolationmode sample-hold
attr source "warmup(count(packetPushed) - count(packetPulled) - count(packetRemoved) - count(packetDropped))"
attr title "queue length, timeavg"
attr type int
scalar AODVNetwork.host[0].wlan[0].mac.queue packetPushed:count 0
attr interpolationmode none
attr title "packet pushed, count"
scalar AODVNetwork.host[0].wlan[0].mac.queue packetPushed:sum(packetBytes) 0
attr interpolationmode none
attr title "packet pushed, sum(packetBytes)"
scalar AODVNetwork.host[0].wlan[0].mac.queue packetDropQueueOverflow:count 0
attr interpolationmode none
attr source packetDropReasonIsQueueOverflow(packetDropped)
attr title "packet drops: queue overflow, count"
scalar AODVNetwork.host[0].wlan[0].mac.queue packetDropQueueOverflow:sum(packetBytes) 0
attr interpolationmode none
attr source packetDropReasonIsQueueOverflow(packetDropped)
attr title "packet drops: queue overflow, sum(packetBytes)"
scalar AODVNetwork.host[0].wlan[0].mac.queue packetRemoved:count 0
attr interpolationmode none
attr title "packets removed, count"
scalar AODVNetwork.host[0].wlan[0].mac.queue packetRemoved:sum(packetBytes) 0
attr interpolationmode none
attr title "packets removed, sum(packetBytes)"
par AODVNetwork.host[0].wlan[0].mac typename "\"inet.linklayer.acking.AckingMac\""
par AODVNetwork.host[0].wlan[0].mac interfaceTableModule "\"AODVNetwork.host[0].interfaceTable\""
par AODVNetwork.host[0].wlan[0].mac address "\"auto\""
attr mutable ""
par AODVNetwork.host[0].wlan[0].mac bitrate 2e+06bps
attr unit bps
par AODVNetwork.host[0].wlan[0].mac mtu 4470B
attr unit B
par AODVNetwork.host[0].wlan[0].mac headerLength 23B
attr unit B
par AODVNetwork.host[0].wlan[0].mac promiscuous false
par AODVNetwork.host[0].wlan[0].mac fullDuplex true
par AODVNetwork.host[0].wlan[0].mac useAck true
par AODVNetwork.host[0].wlan[0].mac ackTimeout 0.1s
attr unit s
scalar AODVNetwork.host[0].wlan[0].mac rcvdPkFromLl:count 0
attr interpolationmode none
attr source packetReceivedFromLower
attr title "packets received from lower layer, count"
scalar AODVNetwork.host[0].wlan[0].mac rcvdPkFromLl:sum(packetBytes) 0
attr interpolationmode none
attr source packetReceivedFromLower
attr title "packets received from lower layer, sum(packetBytes)"
scalar AODVNetwork.host[0].wlan[0].mac sentDownPk:count 0
attr interpolationmode none
attr source packetSentToLower
attr title "packets sent to lower layer, count"
scalar AODVNetwork.host[0].wlan[0].mac sentDownPk:sum(packetBytes) 0
attr interpolationmode none
attr source packetSentToLower
attr title "packets sent to lower layer, sum(packetBytes)"
scalar AODVNetwork.host[0].wlan[0].mac rcvdPkFromHl:count 0
attr interpolationmode none
attr source packetReceivedFromUpper
attr title "packets received from higher layer, count"
scalar AODVNetwork.host[0].wlan[0].mac rcvdPkFromHl:sum(packetBytes) 0
attr interpolationmode none
attr source packetReceivedFromUpper
attr title "packets received from higher layer, sum(packetBytes)"
scalar AODVNetwork.host[0].wlan[0].mac passedUpPk:count 0
attr interpolationmode none
attr source packetSentToUpper
attr title "packets passed to higher layer, count"
scalar AODVNetwork.host[0].wlan[0].mac passedUpPk:sum(packetBytes) 0
attr interpolationmode none
attr source packetSentToUpper
attr title "packets passed to higher layer, sum(packetBytes)"
scalar AODVNetwork.host[0].wlan[0].mac packetDropIncorrectlyReceived:count 0
attr interpolationmode none
attr source packetDropReasonIsIncorrectlyReceived(packetDropped)
attr title "packet drop: incorrectly received, count"
scalar AODVNetwork.host[0].wlan[0].mac packetDropIncorrectlyReceived:sum(packetBytes) 0
attr interpolationmode none
attr source packetDropReasonIsIncorrectlyReceived(packetDropped)
attr title "packet drop: incorrectly received, sum(packetBytes)"
scalar AODVNetwork.host[0].wlan[0].mac packetDropInterfaceDown:count 0
attr interpolationmode none
attr source packetDropReasonIsInterfaceDown(packetDropped)
attr title "packet drop: interface down, count"
scalar AODVNetwork.host[0].wlan[0].mac packetDropInterfaceDown:sum(packetBytes) 0
attr interpolationmode none
attr source packetDropReasonIsInterfaceDown(packetDropped)
attr title "packet drop: interface down, sum(packetBytes)"
scalar AODVNetwork.host[0].wlan[0].mac packetDropNotAddressedToUs:count 0
attr interpolationmode none
attr source packetDropReasonIsNotAddressedToUs(packetDropped)
attr title "packet drop: not addressed to us, count"
scalar AODVNetwork.host[0].wlan[0].mac packetDropNotAddressedToUs:sum(packetBytes) 0
attr interpolationmode none
attr source packetDropReasonIsNotAddressedToUs(packetDropped)
attr title "packet drop: not addressed to us, sum(packetBytes)"
scalar AODVNetwork.host[0].wlan[0].mac linkBroken:count 0
attr interpolationmode none
attr source linkBroken
attr title "link break, count"
par AODVNetwork.host[0].wlan[0].radio.antenna typename "\"inet.physicallayer.wireless.common.antenna.IsotropicAntenna\""
par AODVNetwork.host[0].wlan[0].radio.antenna mobilityModule "\"^.^.^.mobility\""
par AODVNetwork.host[0].wlan[0].radio.antenna numAntennas 1
par AODVNetwork.host[0].wlan[0].radio.transmitter typename "\"inet.physicallayer.wireless.unitdisk.UnitDiskTransmitter\""
par AODVNetwork.host[0].wlan[0].radio.transmitter preambleDuration 0s
attr unit s
par AODVNetwork.host[0].wlan[0].radio.transmitter headerLength 96b
attr unit b
par AODVNetwork.host[0].wlan[0].radio.transmitter bitrate 2e+06bps
attr unit bps
par AODVNetwork.host[0].wlan[0].radio.transmitter communicationRange 250m
attr unit m
par AODVNetwork.host[0].wlan[0].radio.transmitter interferenceRange 0m
attr unit m
par AODVNetwork.host[0].wlan[0].radio.transmitter detectionRange 0m
attr unit m
par AODVNetwork.host[0].wlan[0].radio.receiver typename "\"inet.physicallayer.wireless.unitdisk.UnitDiskReceiver\""
par AODVNetwork.host[0].wlan[0].radio.receiver ignoreInterference true
par AODVNetwork.host[0].wlan[0].radio typename "\"inet.physicallayer.wireless.unitdisk.UnitDiskRadio\""
par AODVNetwork.host[0].wlan[0].radio radioMediumModule "\"radioMedium\""
par AODVNetwork.host[0].wlan[0].radio energySourceModule "\"\""
par AODVNetwork.host[0].wlan[0].radio initialRadioMode "\"off\""
attr enum off,sleep,receiver,transmitter,transceiver
par AODVNetwork.host[0].wlan[0].radio switchingTimes "\"ms 0 0 0 0 0 0 0 0 0 0 0 0 0 0 0 0 0 0 0 0 0 0 0 0 0\""
par AODVNetwork.host[0].wlan[0].radio sendRawBytes false
par AODVNetwork.host[0].wlan[0].radio separateTransmissionParts false
par AODVNetwork.host[0].wlan[0].radio separateReceptionParts false
par AODVNetwork.host[0].wlan[0].radio displayCommunicationRange false
par AODVNetwork.host[0].wlan[0].radio displayInterferenceRange false
statistic AODVNetwork.host[0].wlan[0].radio minSnir:histogram
field count 0
field mean nan
field stddev nan
field min nan
field max nan
field sum 0
field sqrsum 0
attr source minimumSnir(packetSentToUpper)
attr title "Min SNIR, histogram"
bin	-inf	0
bin	0	0
bin	1	0
statistic AODVNetwork.host[0].wlan[0].radio packetErrorRate:histogram
field count 0
field mean nan
field stddev nan
field min nan
field max nan
field sum 0
field sqrsum 0
attr source packetErrorRate(packetSentToUpper)
attr title "Packet error rate, histogram"
bin	-inf	0
bin	0	0
bin	1	0
statistic AODVNetwork.host[0].wlan[0].radio bitErrorRate:histogram
field count 0
field mean nan
field stddev nan
field min nan
field max nan
field sum 0
field sqrsum 0
attr source bitErrorRate(packetSentToUpper)
attr title "Bit error rate, histogram"
bin	-inf	0
bin	0	0
bin	1	0
statistic AODVNetwork.host[0].wlan[0].radio symbolErrorRate:histogram
field count 0
field mean nan
field stddev nan
field min nan
field max nan
field sum 0
field sqrsum 0
attr source symbolErrorRate(packetSentToUpper)
attr title "Symbol error rate, histogram"
bin	-inf	0
bin	0	0
bin	1	0
scalar AODVNetwork.host[0].wlan[0].radio transmissionState:count 1
attr interpolationmode sample-hold
attr source transmissionStateChanged
attr title "Radio transmission state, count"
scalar AODVNetwork.host[0].wlan[0].radio receptionState:count 1
attr interpolationmode sample-hold
attr source receptionStateChanged
attr title "Radio reception state, count"
scalar AODVNetwork.host[0].wlan[0].radio radioMode:count 3
attr interpolationmode sample-hold
attr source radioModeChanged
attr title "Radio mode, count"
par AODVNetwork.host[0].wlan[0] typename "\"inet.linklayer.acking.AckingWirelessInterface\""
par AODVNetwork.host[0].wlan[0] displayStringTextFormat "\"%a (%i)\\n%m\""
par AODVNetwork.host[0].wlan[0] recordPcap false
par AODVNetwork.host[0].wlan[0] numPcapRecorders 0
par AODVNetwork.host[0].wlan[0] interfaceTableModule "\"AODVNetwork.host[0].interfaceTable\""
par AODVNetwork.host[0].wlan[0] energySourceModule "\"\""
par AODVNetwork.host[0].wlan[0] bitrate 2e+06bps
attr unit bps
par AODVNetwork.host[0].ipv4.transportIn.channel typename "\"ned.IdealChannel\""
par AODVNetwork.host[0].ipv4.up.out[0].channel typename "\"ned.IdealChannel\""
par AODVNetwork.host[0].ipv4.lp.out[2].channel typename "\"ned.IdealChannel\""
par AODVNetwork.host[0].ipv4.ifIn.channel typename "\"ned.IdealChannel\""
par AODVNetwork.host[0].ipv4.configurator typename "\"inet.networklayer.configurator.ipv4.Ipv4NodeConfigurator\""
par AODVNetwork.host[0].ipv4.configurator interfaceTableModule "\"AODVNetwork.host[0].interfaceTable\""
par AODVNetwork.host[0].ipv4.configurator routingTableModule "\"AODVNetwork.host[0].ipv4.routingTable\""
par AODVNetwork.host[0].ipv4.configurator networkConfiguratorModule "\"configurator\""
par AODVNetwork.host[0].ipv4.configurator configureRoutingTable true
par AODVNetwork.host[0].ipv4.routingTable typename "\"inet.networklayer.ipv4.Ipv4RoutingTable\""
par AODVNetwork.host[0].ipv4.routingTable interfaceTableModule "\"AODVNetwork.host[0].interfaceTable\""
par AODVNetwork.host[0].ipv4.routingTable routerId "\"auto\""
par AODVNetwork.host[0].ipv4.routingTable netmaskRoutes "\"*\""
par AODVNetwork.host[0].ipv4.routingTable forwarding true
par AODVNetwork.host[0].ipv4.routingTable multicastForwarding false
par AODVNetwork.host[0].ipv4.routingTable useAdminDist false
par AODVNetwork.host[0].ipv4.routingTable routingFile "\"\""
par AODVNetwork.host[0].ipv4.natTable typename "\"inet.networklayer.ipv4.Ipv4NatTable\""
par AODVNetwork.host[0].ipv4.natTable networkProtocolModule "\"^.ip\""
par AODVNetwork.host[0].ipv4.natTable config "<config/> at content:1"
par AODVNetwork.host[0].ipv4.up typename "\"inet.common.MessageDispatcher\""
par AODVNetwork.host[0].ipv4.up displayStringTextFormat "\"processed %p pk (%l)\""
par AODVNetwork.host[0].ipv4.igmp typename "\"inet.networklayer.ipv4.Igmpv2\""
par AODVNetwork.host[0].ipv4.igmp interfaceTableModule "\"AODVNetwork.host[0].interfaceTable\""
par AODVNetwork.host[0].ipv4.igmp routingTableModule "\"AODVNetwork.host[0].ipv4.routingTable\""
par AODVNetwork.host[0].ipv4.igmp crcMode "\"declared\""
attr enum declared,computed
par AODVNetwork.host[0].ipv4.igmp enabled true
par AODVNetwork.host[0].ipv4.igmp robustnessVariable 2
par AODVNetwork.host[0].ipv4.igmp queryInterval 125s
attr unit s
par AODVNetwork.host[0].ipv4.igmp queryResponseInterval 10s
attr unit s
par AODVNetwork.host[0].ipv4.igmp groupMembershipInterval 260s
attr unit s
par AODVNetwork.host[0].ipv4.igmp otherQuerierPresentInterval 255s
attr unit s
par AODVNetwork.host[0].ipv4.igmp startupQueryInterval 31.25s
attr unit s
par AODVNetwork.host[0].ipv4.igmp startupQueryCount 2
par AODVNetwork.host[0].ipv4.igmp lastMemberQueryInterval 1s
attr unit s
par AODVNetwork.host[0].ipv4.igmp lastMemberQueryCount 2
par AODVNetwork.host[0].ipv4.igmp unsolicitedReportInterval 10s
attr unit s
par AODVNetwork.host[0].ipv4.icmp typename "\"inet.networklayer.ipv4.Icmp\""
par AODVNetwork.host[0].ipv4.icmp interfaceTableModule "\"AODVNetwork.host[0].interfaceTable\""
par AODVNetwork.host[0].ipv4.icmp routingTableModule "\"AODVNetwork.host[0].ipv4.routingTable\""
par AODVNetwork.host[0].ipv4.icmp crcMode "\"declared\""
attr enum declared,computed
attr mutable ""
par AODVNetwork.host[0].ipv4.icmp quoteLength 8B
attr mutable ""
attr unit B
par AODVNetwork.host[0].ipv4.mp typename "\"inet.common.MessageDispatcher\""
par AODVNetwork.host[0].ipv4.mp displayStringTextFormat "\"processed %p pk (%l)\""
par AODVNetwork.host[0].ipv4.ip typename "\"inet.networklayer.ipv4.Ipv4\""
par AODVNetwork.host[0].ipv4.ip interfaceTableModule "\"AODVNetwork.host[0].interfaceTable\""
par AODVNetwork.host[0].ipv4.ip routingTableModule "\"AODVNetwork.host[0].ipv4.routingTable\""
par AODVNetwork.host[0].ipv4.ip arpModule "\"AODVNetwork.host[0].ipv4.arp\""
par AODVNetwork.host[0].ipv4.ip icmpModule "\"AODVNetwork.host[0].ipv4.icmp\""
par AODVNetwork.host[0].ipv4.ip crcMode "\"declared\""
attr enum declared,computed
par AODVNetwork.host[0].ipv4.ip timeToLive 32
par AODVNetwork.host[0].ipv4.ip multicastTimeToLive 32
par AODVNetwork.host[0].ipv4.ip fragmentTimeout 60s
attr unit s
par AODVNetwork.host[0].ipv4.ip limitedBroadcast false
par AODVNetwork.host[0].ipv4.ip directBroadcastInterfaces "\"\""
scalar AODVNetwork.host[0].ipv4.ip packetDropAddressResolutionFailed:count 0
attr interpolationmode none
attr source packetDropReasonIsAddressResolutionFailed(packetDropped)
attr title "packet drop: address resolution failed, count"
scalar AODVNetwork.host[0].ipv4.ip packetDropAddressResolutionFailed:sum(packetBytes) 0
attr interpolationmode none
attr source packetDropReasonIsAddressResolutionFailed(packetDropped)
attr title "packet drop: address resolution failed, sum(packetBytes)"
scalar AODVNetwork.host[0].ipv4.ip packetDropHopLimitReached:count 0
attr interpolationmode none
attr source packetDropReasonIsHopLimitReached(packetDropped)
attr title "packet drop: hop limit reached, count"
scalar AODVNetwork.host[0].ipv4.ip packetDropHopLimitReached:sum(packetBytes) 0
attr interpolationmode none
attr source packetDropReasonIsHopLimitReached(packetDropped)
attr title "packet drop: hop limit reached, sum(packetBytes)"
scalar AODVNetwork.host[0].ipv4.ip packetDropForwardingDisabled:count 0
attr interpolationmode none
attr source packetDropReasonIsForwardingDisabled(packetDropped)
attr title "packet drop: forwarding disabled, count"
scalar AODVNetwork.host[0].ipv4.ip packetDropForwardingDisabled:sum(packetBytes) 0
attr interpolationmode none
attr source packetDropReasonIsForwardingDisabled(packetDropped)
attr title "packet drop: forwarding disabled, sum(packetBytes)"
scalar AODVNetwork.host[0].ipv4.ip packetDropNoInterfaceFound:count 0
attr interpolationmode none
attr source packetDropReasonIsNoInterfaceFound(packetDropped)
attr title "packet drop: no interface found, count"
scalar AODVNetwork.host[0].ipv4.ip packetDropNoInterfaceFound:sum(packetBytes) 0
attr interpolationmode none
attr source packetDropReasonIsNoInterfaceFound(packetDropped)
attr title "packet drop: no interface found, sum(packetBytes)"
scalar AODVNetwork.host[0].ipv4.ip packetDropNoRouteFound:count 0
attr interpolationmode none
attr source packetDropReasonIsNoRouteFound(packetDropped)
attr title "packet drop: no route found, count"
scalar AODVNetwork.host[0].ipv4.ip packetDropNoRouteFound:sum(packetBytes) 0
attr interpolationmode none
attr source packetDropReasonIsNoRouteFound(packetDropped)
attr title "packet drop: no route found, sum(packetBytes)"
scalar AODVNetwork.host[0].ipv4.ip packetDropUndefined:count 0
attr interpolationmode none
attr source packetDropReasonIsUndefined(packetDropped)
attr title "packet drop: undefined, count"
scalar AODVNetwork.host[0].ipv4.ip packetDropUndefined:sum(packetBytes) 0
attr interpolationmode none
attr source packetDropReasonIsUndefined(packetDropped)
attr title "packet drop: undefined, sum(packetBytes)"
par AODVNetwork.host[0].ipv4.arp typename "\"inet.networklayer.arp.ipv4.Arp\""
par AODVNetwork.host[0].ipv4.arp interfaceTableModule "\"AODVNetwork.host[0].interfaceTable\""
par AODVNetwork.host[0].ipv4.arp routingTableModule "\"AODVNetwork.host[0].ipv4.routingTable\""
par AODVNetwork.host[0].ipv4.arp retryTimeout 1s
attr unit s
par AODVNetwork.host[0].ipv4.arp retryCount 3
par AODVNetwork.host[0].ipv4.arp cacheTimeout 120s
attr unit s
par AODVNetwork.host[0].ipv4.arp proxyArpInterfaces "\"\""
scalar AODVNetwork.host[0].ipv4.arp arpReplySent:count 0
attr source arpReplySent
attr title "ARP replies sent, count"
scalar AODVNetwork.host[0].ipv4.arp arpReplySent:sum(packetBytes) 0
attr source arpReplySent
attr title "ARP replies sent, sum(packetBytes)"
scalar AODVNetwork.host[0].ipv4.arp arpRequestSent:count 0
attr source arpRequestSent
attr title "ARP request sent, count"
scalar AODVNetwork.host[0].ipv4.arp arpRequestSent:sum(packetBytes) 0
attr source arpRequestSent
attr title "ARP request sent, sum(packetBytes)"
scalar AODVNetwork.host[0].ipv4.arp arpResolutionFailed:count 0
attr title "ARP failed resolutions, count"
scalar AODVNetwork.host[0].ipv4.arp arpResolutionCompleted:count 0
attr title "ARP completed resolutions, count"
scalar AODVNetwork.host[0].ipv4.arp arpResolutionInitiated:count 0
attr title "ARP initiated resolutions, count"
par AODVNetwork.host[0].ipv4.lp typename "\"inet.common.MessageDispatcher\""
par AODVNetwork.host[0].ipv4.lp displayStringTextFormat "\"processed %p pk (%l)\""
par AODVNetwork.host[0].ipv4 typename "\"inet.networklayer.ipv4.Ipv4NetworkLayer\""
par AODVNetwork.host[0].ipv4 forwarding true
par AODVNetwork.host[0].ipv4 multicastForwarding false
par AODVNetwork.host[0].ipv4 interfaceTableModule "\"AODVNetwork.host[0].interfaceTable\""
par AODVNetwork.host[0].ipv4 displayStringTextFormat "\"%i\""
par AODVNetwork.host[0].nl typename "\"inet.common.MessageDispatcher\""
par AODVNetwork.host[0].nl displayStringTextFormat "\"processed %p pk (%l)\""
par AODVNetwork.host[0].udp typename "\"inet.transportlayer.udp.Udp\""
par AODVNetwork.host[0].udp interfaceTableModule "\"AODVNetwork.host[0].interfaceTable\""
par AODVNetwork.host[0].udp icmpModule "\"^.ipv4.icmp\""
par AODVNetwork.host[0].udp icmpv6Module "\"^.ipv6.icmpv6\""
par AODVNetwork.host[0].udp crcMode "\"declared\""
attr enum disabled,declared,computed
scalar AODVNetwork.host[0].udp packetReceived:count 0
attr interpolationmode none
attr source packetReceived
attr title "packets received, count"
scalar AODVNetwork.host[0].udp packetReceived:sum(packetBytes) 0
attr interpolationmode none
attr source packetReceived
attr title "packets received, sum(packetBytes)"
scalar AODVNetwork.host[0].udp packetSent:count 0
attr interpolationmode none
attr source packetSent
attr title "packets sent, count"
scalar AODVNetwork.host[0].udp packetSent:sum(packetBytes) 0
attr interpolationmode none
attr source packetSent
attr title "packets sent, sum(packetBytes)"
scalar AODVNetwork.host[0].udp passedUpPk:count 0
attr interpolationmode none
attr source packetSentToUpper
attr title "packets passed up, count"
scalar AODVNetwork.host[0].udp droppedPkWrongPort:count 0
attr interpolationmode none
attr source packetDropReasonIsNoPortFound(packetDropped)
attr title "packets dropped (wrong port), count"
scalar AODVNetwork.host[0].udp droppedPkBadChecksum:count 0
attr interpolationmode none
attr source packetDropReasonIsIncorrectlyReceived(packetDropped)
attr title "packets dropped (checksum error), count"
par AODVNetwork.host[0].tcp typename "\"inet.transportlayer.tcp.Tcp\""
par AODVNetwork.host[0].tcp crcMode "\"declared\""
attr enum declared,computed
par AODVNetwork.host[0].tcp advertisedWindow 7504
par AODVNetwork.host[0].tcp delayedAcksEnabled false
par AODVNetwork.host[0].tcp nagleEnabled true
par AODVNetwork.host[0].tcp limitedTransmitEnabled false
par AODVNetwork.host[0].tcp increasedIWEnabled false
par AODVNetwork.host[0].tcp sackSupport false
par AODVNetwork.host[0].tcp windowScalingSupport false
par AODVNetwork.host[0].tcp windowScalingFactor -1
par AODVNetwork.host[0].tcp timestampSupport false
par AODVNetwork.host[0].tcp mss 536
par AODVNetwork.host[0].tcp msl 120s
attr unit s
par AODVNetwork.host[0].tcp tcpAlgorithmClass "\"TcpReno\""
attr enum TcpVegas,TcpWestwood,TcpNewReno,TcpReno,TcpTahoe,TcpNoCongestionControl
par AODVNetwork.host[0].tcp useDataNotification false
par AODVNetwork.host[0].tcp dupthresh 3
par AODVNetwork.host[0].tcp initialSsthresh 4294967295
par AODVNetwork.host[0].tcp stopOperationExtraTime 0s
attr unit s
par AODVNetwork.host[0].tcp stopOperationTimeout 2s
attr unit s
par AODVNetwork.host[0].tcp ecnWillingness false
par AODVNetwork.host[0].tcp dctcpGamma 0.0625
par AODVNetwork.host[0].tn typename "\"inet.common.MessageDispatcher\""
par AODVNetwork.host[0].tn displayStringTextFormat "\"processed %p pk (%l)\""
par AODVNetwork.host[0].app[0] typename "\"inet.applications.pingapp.PingApp\""
par AODVNetwork.host[0].app[0] destAddr "\"host[1](ipv4)\""
par AODVNetwork.host[0].app[0] srcAddr "\"\""
par AODVNetwork.host[0].app[0] packetSize 56B
attr unit B
par AODVNetwork.host[0].app[0] sendInterval 1s
attr unit s
par AODVNetwork.host[0].app[0] hopLimit -1
par AODVNetwork.host[0].app[0] count -1
par AODVNetwork.host[0].app[0] startTime 3.19525s
attr unit s
par AODVNetwork.host[0].app[0] stopTime -1s
attr unit s
par AODVNetwork.host[0].app[0] sleepDuration 0s
attr unit s
par AODVNetwork.host[0].app[0] continuous false
par AODVNetwork.host[0].app[0] printPing true
par AODVNetwork.host[0].app[0] crcMode "\"declared\""
attr enum declared,computed
par AODVNetwork.host[0].app[0] networkProtocol "\"\""
par AODVNetwork.host[0].app[0] stopOperationExtraTime -1s
attr unit s
par AODVNetwork.host[0].app[0] stopOperationTimeout 2s
attr unit s
scalar AODVNetwork.host[0].app[0] pingRxSeq:count 0
attr interpolationmode none
attr title "ping rx seq, count"
scalar AODVNetwork.host[0].app[0] pingTxSeq:count 0
attr interpolationmode none
attr title "ping tx seq, count"
scalar AODVNetwork.host[0].app[0] numOutOfOrderArrivals:last nan
attr interpolationmode none
attr title "ping out-of-order arrivals, last"
scalar AODVNetwork.host[0].app[0] numLost:last nan
attr interpolationmode none
attr title "pings lost, last"
statistic AODVNetwork.host[0].app[0] rtt:histogram
field count 0
field mean nan
field stddev nan
field min nan
field max nan
field sum 0
field sqrsum 0
attr interpolationmode none
attr title "ping round-trip time, histogram"
attr unit s
bin	-inf	0
bin	0	0
bin	1	0
par AODVNetwork.host[0].at typename "\"inet.common.MessageDispatcher\""
par AODVNetwork.host[0].at displayStringTextFormat "\"processed %p pk (%l)\""
par AODVNetwork.host[0].aodv typename "\"inet.routing.aodv.Aodv\""
par AODVNetwork.host[0].aodv routingTableModule "\"^.ipv4.routingTable\""
par AODVNetwork.host[0].aodv interfaceTableModule "\"AODVNetwork.host[0].interfaceTable\""
par AODVNetwork.host[0].aodv networkProtocolModule "\"^.ipv4.ip\""
par AODVNetwork.host[0].aodv askGratuitousRREP false
par AODVNetwork.host[0].aodv useHelloMessages false
par AODVNetwork.host[0].aodv useLocalRepair false
par AODVNetwork.host[0].aodv destinationOnlyFlag false
par AODVNetwork.host[0].aodv udpPort 654
par AODVNetwork.host[0].aodv interface "\"wlan0\""
par AODVNetwork.host[0].aodv maxPeriodicJitter 0.25s
attr unit s
par AODVNetwork.host[0].aodv periodicJitter "uniform(0s, maxPeriodicJitter)"
attr unit s
par AODVNetwork.host[0].aodv maxJitter 0.005s
attr unit s
par AODVNetwork.host[0].aodv jitter "uniform(0ms, maxJitter)"
attr unit s
par AODVNetwork.host[0].aodv helloInterval 1s
attr unit s
par AODVNetwork.host[0].aodv allowedHelloLoss 2
par AODVNetwork.host[0].aodv activeRouteTimeout 3s
attr unit s
par AODVNetwork.host[0].aodv netDiameter 35
par AODVNetwork.host[0].aodv nodeTraversalTime 0.04s
attr unit s
par AODVNetwork.host[0].aodv rerrRatelimit 10
par AODVNetwork.host[0].aodv rreqRetries 2
par AODVNetwork.host[0].aodv rreqRatelimit 10
par AODVNetwork.host[0].aodv timeoutBuffer 2
par AODVNetwork.host[0].aodv ttlStart 2
par AODVNetwork.host[0].aodv ttlIncrement 2
par AODVNetwork.host[0].aodv ttlThreshold 7
par AODVNetwork.host[0].aodv localAddTTL 2
par AODVNetwork.host[0].aodv myRouteTimeout 6s
attr unit s
par AODVNetwork.host[0].aodv deletePeriod 15s
attr unit s
par AODVNetwork.host[0].aodv blacklistTimeout 5.6s
attr unit s
par AODVNetwork.host[0].aodv netTraversalTime 2.8s
attr unit s
par AODVNetwork.host[0].aodv nextHopWait 0.05s
attr unit s
par AODVNetwork.host[0].aodv pathDiscoveryTime 5.6s
attr unit s
par AODVNetwork.host[0] typename "\"inet.node.aodv.AodvRouter\""
par AODVNetwork.host[0] hasStatus true
par AODVNetwork.host[0] osgModel "\"\""
par AODVNetwork.host[0] osgModelColor "\"\""
par AODVNetwork.host[0] canvasImage "\"\""
par AODVNetwork.host[0] canvasImageColor "\"\""
par AODVNetwork.host[0] recordPcap false
par AODVNetwork.host[0] numPcapRecorders 0
par AODVNetwork.host[0] numLoInterfaces 1
par AODVNetwork.host[0] numWlanInterfaces 1
par AODVNetwork.host[0] numEthInterfaces 0
par AODVNetwork.host[0] numPppInterfaces 0
par AODVNetwork.host[0] numTunInterfaces 0
par AODVNetwork.host[0] numVirtInterfaces 0
par AODVNetwork.host[0] hasIpv4 true
par AODVNetwork.host[0] hasIpv6 false
par AODVNetwork.host[0] hasGn false
par AODVNetwork.host[0] forwarding true
par AODVNetwork.host[0] multicastForwarding false
par AODVNetwork.host[0] hasUdp true
par AODVNetwork.host[0] hasTcp true
par AODVNetwork.host[0] hasSctp false
par AODVNetwork.host[0] numApps 1
par AODVNetwork.host[1].radioIn[0].channel typename "\"ned.IdealChannel\""
par AODVNetwork.host[1].status typename "\"inet.common.lifecycle.NodeStatus\""
par AODVNetwork.host[1].status initialStatus "\"UP\""
par AODVNetwork.host[1].mobility typename "\"inet.mobility.static.StationaryMobility\""
par AODVNetwork.host[1].mobility subjectModule "\"^\""
par AODVNetwork.host[1].mobility coordinateSystemModule "\"\""
par AODVNetwork.host[1].mobility displayStringTextFormat "\"p: %p\\nv: %v\""
attr mutable ""
par AODVNetwork.host[1].mobility updateDisplayString true
par AODVNetwork.host[1].mobility constraintAreaMinX 0m
attr unit m
par AODVNetwork.host[1].mobility constraintAreaMinY 0m
attr unit m
par AODVNetwork.host[1].mobility constraintAreaMinZ 0m
attr unit m
par AODVNetwork.host[1].mobility constraintAreaMaxX 600m
attr unit m
par AODVNetwork.host[1].mobility constraintAreaMaxY 600m
attr unit m
par AODVNetwork.host[1].mobility constraintAreaMaxZ 0m
attr unit m
par AODVNetwork.host[1].mobility initialX 559.534m
attr unit m
par AODVNetwork.host[1].mobility initialY 0.0686286m
attr unit m
par AODVNetwork.host[1].mobility initialZ 0m
attr unit m
par AODVNetwork.host[1].mobility initialLatitude "nan deg"
attr unit deg
par AODVNetwork.host[1].mobility initialLongitude "nan deg"
attr unit deg
par AODVNetwork.host[1].mobility initialAltitude 0m
attr unit m
par AODVNetwork.host[1].mobility initialHeading 0deg
attr unit deg
par AODVNetwork.host[1].mobility initialElevation 0deg
attr unit deg
par AODVNetwork.host[1].mobility initialBank 0deg
attr unit deg
par AODVNetwork.host[1].mobility initFromDisplayString true
par AODVNetwork.host[1].mobility updateFromDisplayString true
par AODVNetwork.host[1].interfaceTable typename "\"inet.networklayer.common.InterfaceTable\""
par AODVNetwork.host[1].interfaceTable displayAddresses false
par AODVNetwork.host[1].li typename "\"inet.common.MessageDispatcher\""
par AODVNetwork.host[1].li displayStringTextFormat "\"processed %p pk (%l)\""
par AODVNetwork.host[1].lo[0].upperLayerIn.channel typename "\"ned.IdealChannel\""
par AODVNetwork.host[1].lo[0].lo.upperLayerOut.channel typename "\"ned.IdealChannel\""
par AODVNetwork.host[1].lo[0].lo typename "\"inet.linklayer.loopback.Loopback\""
par AODVNetwork.host[1].lo[0].lo interfaceTableModule "\"AODVNetwork.host[1].interfaceTable\""
par AODVNetwork.host[1].lo[0].lo mtu 4470B
attr unit B
scalar AODVNetwork.host[1].lo[0].lo rcvdPkFromHl:count 0
attr interpolationmode none
attr source packetReceivedFromUpper
attr title "packets received from higher layer, count"
scalar AODVNetwork.host[1].lo[0].lo rcvdPkFromHl:sum(packetBytes) 0
attr interpolationmode none
attr source packetReceivedFromUpper
attr title "packets received from higher layer, sum(packetBytes)"
scalar AODVNetwork.host[1].lo[0].lo passedUpPk:count 0
attr interpolationmode none
attr source packetSentToUpper
attr title "packets passed to higher layer, count"
scalar AODVNetwork.host[1].lo[0].lo passedUpPk:sum(packetBytes) 0
attr interpolationmode none
attr source packetSentToUpper
attr title "packets passed to higher layer, sum(packetBytes)"
par AODVNetwork.host[1].lo[0] typename "\"inet.linklayer.loopback.LoopbackInterface\""
par AODVNetwork.host[1].lo[0] displayStringTextFormat "\"%a (%i)\\n%m\""
par AODVNetwork.host[1].lo[0] recordPcap false
par AODVNetwork.host[1].lo[0] numPcapRecorders 0
par AODVNetwork.host[1].lo[0] interfaceTableModule "\"AODVNetwork.host[1].interfaceTable\""
par AODVNetwork.host[1].wlan[0].upperLayerIn.channel typename "\"ned.IdealChannel\""
par AODVNetwork.host[1].wlan[0].radioIn.channel typename "\"ned.IdealChannel\""
par AODVNetwork.host[1].wlan[0].mac.upperLayerOut.channel typename "\"ned.IdealChannel\""
par AODVNetwork.host[1].wlan[0].mac.queue typename "\"inet.queueing.queue.DropTailQueue\""
par AODVNetwork.host[1].wlan[0].mac.queue displayStringTextFormat "\"contains %p pk (%l) pushed %u\\npulled %o removed %r dropped %d\""
par AODVNetwork.host[1].wlan[0].mac.queue packetCapacity 100
par AODVNetwork.host[1].wlan[0].mac.queue dataCapacity -1b
attr unit b
par AODVNetwork.host[1].wlan[0].mac.queue dropperClass "\"inet::queueing::PacketAtCollectionEndDropper\""
par AODVNetwork.host[1].wlan[0].mac.queue comparatorClass "\"\""
par AODVNetwork.host[1].wlan[0].mac.queue bufferModule "\"\""
scalar AODVNetwork.host[1].wlan[0].mac.queue packetPulled:count 0
attr interpolationmode none
attr title "packet pulled, count"
scalar AODVNetwork.host[1].wlan[0].mac.queue packetPulled:sum(packetBytes) 0
attr interpolationmode none
attr title "packet pulled, sum(packetBytes)"
statistic AODVNetwork.host[1].wlan[0].mac.queue queueingTime:histogram
field count 0
field mean nan
field stddev nan
field min nan
field max nan
field sum 0
field sqrsum 0
attr interpolationmode none
attr source queueingTime(packetPulled)
attr title "queueing times, histogram"
attr unit s
bin	-inf	0
bin	0	0
bin	1	0
scalar AODVNetwork.host[1].wlan[0].mac.queue queueLength:max nan
attr autoWarmupFilter false
attr interpolationmode sample-hold
attr source "warmup(count(packetPushed) - count(packetPulled) - count(packetRemoved) - count(packetDropped))"
attr title "queue length, max"
attr type int
scalar AODVNetwork.host[1].wlan[0].mac.queue queueLength:timeavg nan
attr autoWarmupFilter false
attr interpolationmode sample-hold
attr source "warmup(count(packetPushed) - count(packetPulled) - count(packetRemoved) - count(packetDropped))"
attr title "queue length, timeavg"
attr type int
scalar AODVNetwork.host[1].wlan[0].mac.queue packetPushed:count 0
attr interpolationmode none
attr title "packet pushed, count"
scalar AODVNetwork.host[1].wlan[0].mac.queue packetPushed:sum(packetBytes) 0
attr interpolationmode none
attr title "packet pushed, sum(packetBytes)"
scalar AODVNetwork.host[1].wlan[0].mac.queue packetDropQueueOverflow:count 0
attr interpolationmode none
attr source packetDropReasonIsQueueOverflow(packetDropped)
attr title "packet drops: queue overflow, count"
scalar AODVNetwork.host[1].wlan[0].mac.queue packetDropQueueOverflow:sum(packetBytes) 0
attr interpolationmode none
attr source packetDropReasonIsQueueOverflow(packetDropped)
attr title "packet drops: queue overflow, sum(packetBytes)"
scalar AODVNetwork.host[1].wlan[0].mac.queue packetRemoved:count 0
attr interpolationmode none
attr title "packets removed, count"
scalar AODVNetwork.host[1].wlan[0].mac.queue packetRemoved:sum(packetBytes) 0
attr interpolationmode none
attr title "packets removed, sum(packetBytes)"
par AODVNetwork.host[1].wlan[0].mac typename "\"inet.linklayer.acking.AckingMac\""
par AODVNetwork.host[1].wlan[0].mac interfaceTableModule "\"AODVNetwork.host[1].interfaceTable\""
par AODVNetwork.host[1].wlan[0].mac address "\"auto\""
attr mutable ""
par AODVNetwork.host[1].wlan[0].mac bitrate 2e+06bps
attr unit bps
par AODVNetwork.host[1].wlan[0].mac mtu 4470B
attr unit B
par AODVNetwork.host[1].wlan[0].mac headerLength 23B
attr unit B
par AODVNetwork.host[1].wlan[0].mac promiscuous false
par AODVNetwork.host[1].wlan[0].mac fullDuplex true
par AODVNetwork.host[1].wlan[0].mac useAck true
par AODVNetwork.host[1].wlan[0].mac ackTimeout 0.1s
attr unit s
scalar AODVNetwork.host[1].wlan[0].mac rcvdPkFromLl:count 0
attr interpolationmode none
attr source packetReceivedFromLower
attr title "packets received from lower layer, count"
scalar AODVNetwork.host[1].wlan[0].mac rcvdPkFromLl:sum(packetBytes) 0
attr interpolationmode none
attr source packetReceivedFromLower
attr title "packets received from lower layer, sum(packetBytes)"
scalar AODVNetwork.host[1].wlan[0].mac sentDownPk:count 0
attr interpolationmode none
attr source packetSentToLower
attr title "packets sent to lower layer, count"
scalar AODVNetwork.host[1].wlan[0].mac sentDownPk:sum(packetBytes) 0
attr interpolationmode none
attr source packetSentToLower
attr title "packets sent to lower layer, sum(packetBytes)"
scalar AODVNetwork.host[1].wlan[0].mac rcvdPkFromHl:count 0
attr interpolationmode none
attr source packetReceivedFromUpper
attr title "packets received from higher layer, count"
scalar AODVNetwork.host[1].wlan[0].mac rcvdPkFromHl:sum(packetBytes) 0
attr interpolationmode none
attr source packetReceivedFromUpper
attr title "packets received from higher layer, sum(packetBytes)"
scalar AODVNetwork.host[1].wlan[0].mac passedUpPk:count 0
attr interpolationmode none
attr source packetSentToUpper
attr title "packets passed to higher layer, count"
scalar AODVNetwork.host[1].wlan[0].mac passedUpPk:sum(packetBytes) 0
attr interpolationmode none
attr source packetSentToUpper
attr title "packets passed to higher layer, sum(packetBytes)"
scalar AODVNetwork.host[1].wlan[0].mac packetDropIncorrectlyReceived:count 0
attr interpolationmode none
attr source packetDropReasonIsIncorrectlyReceived(packetDropped)
attr title "packet drop: incorrectly received, count"
scalar AODVNetwork.host[1].wlan[0].mac packetDropIncorrectlyReceived:sum(packetBytes) 0
attr interpolationmode none
attr source packetDropReasonIsIncorrectlyReceived(packetDropped)
attr title "packet drop: incorrectly received, sum(packetBytes)"
scalar AODVNetwork.host[1].wlan[0].mac packetDropInterfaceDown:count 0
attr interpolationmode none
attr source packetDropReasonIsInterfaceDown(packetDropped)
attr title "packet drop: interface down, count"
scalar AODVNetwork.host[1].wlan[0].mac packetDropInterfaceDown:sum(packetBytes) 0
attr interpolationmode none
attr source packetDropReasonIsInterfaceDown(packetDropped)
attr title "packet drop: interface down, sum(packetBytes)"
scalar AODVNetwork.host[1].wlan[0].mac packetDropNotAddressedToUs:count 0
attr interpolationmode none
attr source packetDropReasonIsNotAddressedToUs(packetDropped)
attr title "packet drop: not addressed to us, count"
scalar AODVNetwork.host[1].wlan[0].mac packetDropNotAddressedToUs:sum(packetBytes) 0
attr interpolationmode none
attr source packetDropReasonIsNotAddressedToUs(packetDropped)
attr title "packet drop: not addressed to us, sum(packetBytes)"
scalar AODVNetwork.host[1].wlan[0].mac linkBroken:count 0
attr interpolationmode none
attr source linkBroken
attr title "link break, count"
par AODVNetwork.host[1].wlan[0].radio.antenna typename "\"inet.physicallayer.wireless.common.antenna.IsotropicAntenna\""
par AODVNetwork.host[1].wlan[0].radio.antenna mobilityModule "\"^.^.^.mobility\""
par AODVNetwork.host[1].wlan[0].radio.antenna numAntennas 1
par AODVNetwork.host[1].wlan[0].radio.transmitter typename "\"inet.physicallayer.wireless.unitdisk.UnitDiskTransmitter\""
par AODVNetwork.host[1].wlan[0].radio.transmitter preambleDuration 0s
attr unit s
par AODVNetwork.host[1].wlan[0].radio.transmitter headerLength 96b
attr unit b
par AODVNetwork.host[1].wlan[0].radio.transmitter bitrate 2e+06bps
attr unit bps
par AODVNetwork.host[1].wlan[0].radio.transmitter communicationRange 250m
attr unit m
par AODVNetwork.host[1].wlan[0].radio.transmitter interferenceRange 0m
attr unit m
par AODVNetwork.host[1].wlan[0].radio.transmitter detectionRange 0m
attr unit m
par AODVNetwork.host[1].wlan[0].radio.receiver typename "\"inet.physicallayer.wireless.unitdisk.UnitDiskReceiver\""
par AODVNetwork.host[1].wlan[0].radio.receiver ignoreInterference true
par AODVNetwork.host[1].wlan[0].radio typename "\"inet.physicallayer.wireless.unitdisk.UnitDiskRadio\""
par AODVNetwork.host[1].wlan[0].radio radioMediumModule "\"radioMedium\""
par AODVNetwork.host[1].wlan[0].radio energySourceModule "\"\""
par AODVNetwork.host[1].wlan[0].radio initialRadioMode "\"off\""
attr enum off,sleep,receiver,transmitter,transceiver
par AODVNetwork.host[1].wlan[0].radio switchingTimes "\"ms 0 0 0 0 0 0 0 0 0 0 0 0 0 0 0 0 0 0 0 0 0 0 0 0 0\""
par AODVNetwork.host[1].wlan[0].radio sendRawBytes false
par AODVNetwork.host[1].wlan[0].radio separateTransmissionParts false
par AODVNetwork.host[1].wlan[0].radio separateReceptionParts false
par AODVNetwork.host[1].wlan[0].radio displayCommunicationRange false
par AODVNetwork.host[1].wlan[0].radio displayInterferenceRange false
statistic AODVNetwork.host[1].wlan[0].radio minSnir:histogram
field count 0
field mean nan
field stddev nan
field min nan
field max nan
field sum 0
field sqrsum 0
attr source minimumSnir(packetSentToUpper)
attr title "Min SNIR, histogram"
bin	-inf	0
bin	0	0
bin	1	0
statistic AODVNetwork.host[1].wlan[0].radio packetErrorRate:histogram
field count 0
field mean nan
field stddev nan
field min nan
field max nan
field sum 0
field sqrsum 0
attr source packetErrorRate(packetSentToUpper)
attr title "Packet error rate, histogram"
bin	-inf	0
bin	0	0
bin	1	0
statistic AODVNetwork.host[1].wlan[0].radio bitErrorRate:histogram
field count 0
field mean nan
field stddev nan
field min nan
field max nan
field sum 0
field sqrsum 0
attr source bitErrorRate(packetSentToUpper)
attr title "Bit error rate, histogram"
bin	-inf	0
bin	0	0
bin	1	0
statistic AODVNetwork.host[1].wlan[0].radio symbolErrorRate:histogram
field count 0
field mean nan
field stddev nan
field min nan
field max nan
field sum 0
field sqrsum 0
attr source symbolErrorRate(packetSentToUpper)
attr title "Symbol error rate, histogram"
bin	-inf	0
bin	0	0
bin	1	0
scalar AODVNetwork.host[1].wlan[0].radio transmissionState:count 1
attr interpolationmode sample-hold
attr source transmissionStateChanged
attr title "Radio transmission state, count"
scalar AODVNetwork.host[1].wlan[0].radio receptionState:count 1
attr interpolationmode sample-hold
attr source receptionStateChanged
attr title "Radio reception state, count"
scalar AODVNetwork.host[1].wlan[0].radio radioMode:count 3
attr interpolationmode sample-hold
attr source radioModeChanged
attr title "Radio mode, count"
par AODVNetwork.host[1].wlan[0] typename "\"inet.linklayer.acking.AckingWirelessInterface\""
par AODVNetwork.host[1].wlan[0] displayStringTextFormat "\"%a (%i)\\n%m\""
par AODVNetwork.host[1].wlan[0] recordPcap false
par AODVNetwork.host[1].wlan[0] numPcapRecorders 0
par AODVNetwork.host[1].wlan[0] interfaceTableModule "\"AODVNetwork.host[1].interfaceTable\""
par AODVNetwork.host[1].wlan[0] energySourceModule "\"\""
par AODVNetwork.host[1].wlan[0] bitrate 2e+06bps
attr unit bps
par AODVNetwork.host[1].ipv4.transportIn.channel typename "\"ned.IdealChannel\""
par AODVNetwork.host[1].ipv4.up.out[0].channel typename "\"ned.IdealChannel\""
par AODVNetwork.host[1].ipv4.lp.out[2].channel typename "\"ned.IdealChannel\""
par AODVNetwork.host[1].ipv4.ifIn.channel typename "\"ned.IdealChannel\""
par AODVNetwork.host[1].ipv4.configurator typename "\"inet.networklayer.configurator.ipv4.Ipv4NodeConfigurator\""
par AODVNetwork.host[1].ipv4.configurator interfaceTableModule "\"AODVNetwork.host[1].interfaceTable\""
par AODVNetwork.host[1].ipv4.configurator routingTableModule "\"AODVNetwork.host[1].ipv4.routingTable\""
par AODVNetwork.host[1].ipv4.configurator networkConfiguratorModule "\"configurator\""
par AODVNetwork.host[1].ipv4.configurator configureRoutingTable true
par AODVNetwork.host[1].ipv4.routingTable typename "\"inet.networklayer.ipv4.Ipv4RoutingTable\""
par AODVNetwork.host[1].ipv4.routingTable interfaceTableModule "\"AODVNetwork.host[1].interfaceTable\""
par AODVNetwork.host[1].ipv4.routingTable routerId "\"auto\""
par AODVNetwork.host[1].ipv4.routingTable netmaskRoutes "\"*\""
par AODVNetwork.host[1].ipv4.routingTable forwarding true
par AODVNetwork.host[1].ipv4.routingTable multicastForwarding false
par AODVNetwork.host[1].ipv4.routingTable useAdminDist false
par AODVNetwork.host[1].ipv4.routingTable routingFile "\"\""
par AODVNetwork.host[1].ipv4.natTable typename "\"inet.networklayer.ipv4.Ipv4NatTable\""
par AODVNetwork.host[1].ipv4.natTable networkProtocolModule "\"^.ip\""
par AODVNetwork.host[1].ipv4.natTable config "<config/> at content:1"
par AODVNetwork.host[1].ipv4.up typename "\"inet.common.MessageDispatcher\""
par AODVNetwork.host[1].ipv4.up displayStringTextFormat "\"processed %p pk (%l)\""
par AODVNetwork.host[1].ipv4.igmp typename "\"inet.networklayer.ipv4.Igmpv2\""
par AODVNetwork.host[1].ipv4.igmp interfaceTableModule "\"AODVNetwork.host[1].interfaceTable\""
par AODVNetwork.host[1].ipv4.igmp routingTableModule "\"AODVNetwork.host[1].ipv4.routingTable\""
par AODVNetwork.host[1].ipv4.igmp crcMode "\"declared\""
attr enum declared,computed
par AODVNetwork.host[1].ipv4.igmp enabled true
par AODVNetwork.host[1].ipv4.igmp robustnessVariable 2
par AODVNetwork.host[1].ipv4.igmp queryInterval 125s
attr unit s
par AODVNetwork.host[1].ipv4.igmp queryResponseInterval 10s
attr unit s
par AODVNetwork.host[1].ipv4.igmp groupMembershipInterval 260s
attr unit s
par AODVNetwork.host[1].ipv4.igmp otherQuerierPresentInterval 255s
attr unit s
par AODVNetwork.host[1].ipv4.igmp startupQueryInterval 31.25s
attr unit s
par AODVNetwork.host[1].ipv4.igmp startupQueryCount 2
par AODVNetwork.host[1].ipv4.igmp lastMemberQueryInterval 1s
attr unit s
par AODVNetwork.host[1].ipv4.igmp lastMemberQueryCount 2
par AODVNetwork.host[1].ipv4.igmp unsolicitedReportInterval 10s
attr unit s
par AODVNetwork.host[1].ipv4.icmp typename "\"inet.networklayer.ipv4.Icmp\""
par AODVNetwork.host[1].ipv4.icmp interfaceTableModule "\"AODVNetwork.host[1].interfaceTable\""
par AODVNetwork.host[1].ipv4.icmp routingTableModule "\"AODVNetwork.host[1].ipv4.routingTable\""
par AODVNetwork.host[1].ipv4.icmp crcMode "\"declared\""
attr enum declared,computed
attr mutable ""
par AODVNetwork.host[1].ipv4.icmp quoteLength 8B
attr mutable ""
attr unit B
par AODVNetwork.host[1].ipv4.mp typename "\"inet.common.MessageDispatcher\""
par AODVNetwork.host[1].ipv4.mp displayStringTextFormat "\"processed %p pk (%l)\""
par AODVNetwork.host[1].ipv4.ip typename "\"inet.networklayer.ipv4.Ipv4\""
par AODVNetwork.host[1].ipv4.ip interfaceTableModule "\"AODVNetwork.host[1].interfaceTable\""
par AODVNetwork.host[1].ipv4.ip routingTableModule "\"AODVNetwork.host[1].ipv4.routingTable\""
par AODVNetwork.host[1].ipv4.ip arpModule "\"AODVNetwork.host[1].ipv4.arp\""
par AODVNetwork.host[1].ipv4.ip icmpModule "\"AODVNetwork.host[1].ipv4.icmp\""
par AODVNetwork.host[1].ipv4.ip crcMode "\"declared\""
attr enum declared,computed
par AODVNetwork.host[1].ipv4.ip timeToLive 32
par AODVNetwork.host[1].ipv4.ip multicastTimeToLive 32
par AODVNetwork.host[1].ipv4.ip fragmentTimeout 60s
attr unit s
par AODVNetwork.host[1].ipv4.ip limitedBroadcast false
par AODVNetwork.host[1].ipv4.ip directBroadcastInterfaces "\"\""
scalar AODVNetwork.host[1].ipv4.ip packetDropAddressResolutionFailed:count 0
attr interpolationmode none
attr source packetDropReasonIsAddressResolutionFailed(packetDropped)
attr title "packet drop: address resolution failed, count"
scalar AODVNetwork.host[1].ipv4.ip packetDropAddressResolutionFailed:sum(packetBytes) 0
attr interpolationmode none
attr source packetDropReasonIsAddressResolutionFailed(packetDropped)
attr title "packet drop: address resolution failed, sum(packetBytes)"
scalar AODVNetwork.host[1].ipv4.ip packetDropHopLimitReached:count 0
attr interpolationmode none
attr source packetDropReasonIsHopLimitReached(packetDropped)
attr title "packet drop: hop limit reached, count"
scalar AODVNetwork.host[1].ipv4.ip packetDropHopLimitReached:sum(packetBytes) 0
attr interpolationmode none
attr source packetDropReasonIsHopLimitReached(packetDropped)
attr title "packet drop: hop limit reached, sum(packetBytes)"
scalar AODVNetwork.host[1].ipv4.ip packetDropForwardingDisabled:count 0
attr interpolationmode none
attr source packetDropReasonIsForwardingDisabled(packetDropped)
attr title "packet drop: forwarding disabled, count"
scalar AODVNetwork.host[1].ipv4.ip packetDropForwardingDisabled:sum(packetBytes) 0
attr interpolationmode none
attr source packetDropReasonIsForwardingDisabled(packetDropped)
attr title "packet drop: forwarding disabled, sum(packetBytes)"
scalar AODVNetwork.host[1].ipv4.ip packetDropNoInterfaceFound:count 0
attr interpolationmode none
attr source packetDropReasonIsNoInterfaceFound(packetDropped)
attr title "packet drop: no interface found, count"
scalar AODVNetwork.host[1].ipv4.ip packetDropNoInterfaceFound:sum(packetBytes) 0
attr interpolationmode none
attr source packetDropReasonIsNoInterfaceFound(packetDropped)
attr title "packet drop: no interface found, sum(packetBytes)"
scalar AODVNetwork.host[1].ipv4.ip packetDropNoRouteFound:count 0
attr interpolationmode none
attr source packetDropReasonIsNoRouteFound(packetDropped)
attr title "packet drop: no route found, count"
scalar AODVNetwork.host[1].ipv4.ip packetDropNoRouteFound:sum(packetBytes) 0
attr interpolationmode none
attr source packetDropReasonIsNoRouteFound(packetDropped)
attr title "packet drop: no route found, sum(packetBytes)"
scalar AODVNetwork.host[1].ipv4.ip packetDropUndefined:count 0
attr interpolationmode none
attr source packetDropReasonIsUndefined(packetDropped)
attr title "packet drop: undefined, count"
scalar AODVNetwork.host[1].ipv4.ip packetDropUndefined:sum(packetBytes) 0
attr interpolationmode none
attr source packetDropReasonIsUndefined(packetDropped)
attr title "packet drop: undefined, sum(packetBytes)"
par AODVNetwork.host[1].ipv4.arp typename "\"inet.networklayer.arp.ipv4.Arp\""
par AODVNetwork.host[1].ipv4.arp interfaceTableModule "\"AODVNetwork.host[1].interfaceTable\""
par AODVNetwork.host[1].ipv4.arp routingTableModule "\"AODVNetwork.host[1].ipv4.routingTable\""
par AODVNetwork.host[1].ipv4.arp retryTimeout 1s
attr unit s
par AODVNetwork.host[1].ipv4.arp retryCount 3
par AODVNetwork.host[1].ipv4.arp cacheTimeout 120s
attr unit s
par AODVNetwork.host[1].ipv4.arp proxyArpInterfaces "\"\""
scalar AODVNetwork.host[1].ipv4.arp arpReplySent:count 0
attr source arpReplySent
attr title "ARP replies sent, count"
scalar AODVNetwork.host[1].ipv4.arp arpReplySent:sum(packetBytes) 0
attr source arpReplySent
attr title "ARP replies sent, sum(packetBytes)"
scalar AODVNetwork.host[1].ipv4.arp arpRequestSent:count 0
attr source arpRequestSent
attr title "ARP request sent, count"
scalar AODVNetwork.host[1].ipv4.arp arpRequestSent:sum(packetBytes) 0
attr source arpRequestSent
attr title "ARP request sent, sum(packetBytes)"
scalar AODVNetwork.host[1].ipv4.arp arpResolutionFailed:count 0
attr title "ARP failed resolutions, count"
scalar AODVNetwork.host[1].ipv4.arp arpResolutionCompleted:count 0
attr title "ARP completed resolutions, count"
scalar AODVNetwork.host[1].ipv4.arp arpResolutionInitiated:count 0
attr title "ARP initiated resolutions, count"
par AODVNetwork.host[1].ipv4.lp typename "\"inet.common.MessageDispatcher\""
par AODVNetwork.host[1].ipv4.lp displayStringTextFormat "\"processed %p pk (%l)\""
par AODVNetwork.host[1].ipv4 typename "\"inet.networklayer.ipv4.Ipv4NetworkLayer\""
par AODVNetwork.host[1].ipv4 forwarding true
par AODVNetwork.host[1].ipv4 multicastForwarding false
par AODVNetwork.host[1].ipv4 interfaceTableModule "\"AODVNetwork.host[1].interfaceTable\""
par AODVNetwork.host[1].ipv4 displayStringTextFormat "\"%i\""
par AODVNetwork.host[1].nl typename "\"inet.common.MessageDispatcher\""
par AODVNetwork.host[1].nl displayStringTextFormat "\"processed %p pk (%l)\""
par AODVNetwork.host[1].udp typename "\"inet.transportlayer.udp.Udp\""
par AODVNetwork.host[1].udp interfaceTableModule "\"AODVNetwork.host[1].interfaceTable\""
par AODVNetwork.host[1].udp icmpModule "\"^.ipv4.icmp\""
par AODVNetwork.host[1].udp icmpv6Module "\"^.ipv6.icmpv6\""
par AODVNetwork.host[1].udp crcMode "\"declared\""
attr enum disabled,declared,computed
scalar AODVNetwork.host[1].udp packetReceived:count 0
attr interpolationmode none
attr source packetReceived
attr title "packets received, count"
scalar AODVNetwork.host[1].udp packetReceived:sum(packetBytes) 0
attr interpolationmode none
attr source packetReceived
attr title "packets received, sum(packetBytes)"
scalar AODVNetwork.host[1].udp packetSent:count 0
attr interpolationmode none
attr source packetSent
attr title "packets sent, count"
scalar AODVNetwork.host[1].udp packetSent:sum(packetBytes) 0
attr interpolationmode none
attr source packetSent
attr title "packets sent, sum(packetBytes)"
scalar AODVNetwork.host[1].udp passedUpPk:count 0
attr interpolationmode none
attr source packetSentToUpper
attr title "packets passed up, count"
scalar AODVNetwork.host[1].udp droppedPkWrongPort:count 0
attr interpolationmode none
attr source packetDropReasonIsNoPortFound(packetDropped)
attr title "packets dropped (wrong port), count"
scalar AODVNetwork.host[1].udp droppedPkBadChecksum:count 0
attr interpolationmode none
attr source packetDropReasonIsIncorrectlyReceived(packetDropped)
attr title "packets dropped (checksum error), count"
par AODVNetwork.host[1].tcp typename "\"inet.transportlayer.tcp.Tcp\""
par AODVNetwork.host[1].tcp crcMode "\"declared\""
attr enum declared,computed
par AODVNetwork.host[1].tcp advertisedWindow 7504
par AODVNetwork.host[1].tcp delayedAcksEnabled false
par AODVNetwork.host[1].tcp nagleEnabled true
par AODVNetwork.host[1].tcp limitedTransmitEnabled false
par AODVNetwork.host[1].tcp increasedIWEnabled false
par AODVNetwork.host[1].tcp sackSupport false
par AODVNetwork.host[1].tcp windowScalingSupport false
par AODVNetwork.host[1].tcp windowScalingFactor -1
par AODVNetwork.host[1].tcp timestampSupport false
par AODVNetwork.host[1].tcp mss 536
par AODVNetwork.host[1].tcp msl 120s
attr unit s
par AODVNetwork.host[1].tcp tcpAlgorithmClass "\"TcpReno\""
attr enum TcpVegas,TcpWestwood,TcpNewReno,TcpReno,TcpTahoe,TcpNoCongestionControl
par AODVNetwork.host[1].tcp useDataNotification false
par AODVNetwork.host[1].tcp dupthresh 3
par AODVNetwork.host[1].tcp initialSsthresh 4294967295
par AODVNetwork.host[1].tcp stopOperationExtraTime 0s
attr unit s
par AODVNetwork.host[1].tcp stopOperationTimeout 2s
attr unit s
par AODVNetwork.host[1].tcp ecnWillingness false
par AODVNetwork.host[1].tcp dctcpGamma 0.0625
par AODVNetwork.host[1].tn typename "\"inet.common.MessageDispatcher\""
par AODVNetwork.host[1].tn displayStringTextFormat "\"processed %p pk (%l)\""
par AODVNetwork.host[1].at typename "\"inet.common.MessageDispatcher\""
par AODVNetwork.host[1].at displayStringTextFormat "\"processed %p pk (%l)\""
par AODVNetwork.host[1].aodv typename "\"inet.routing.aodv.Aodv\""
par AODVNetwork.host[1].aodv routingTableModule "\"^.ipv4.routingTable\""
par AODVNetwork.host[1].aodv interfaceTableModule "\"AODVNetwork.host[1].interfaceTable\""
par AODVNetwork.host[1].aodv networkProtocolModule "\"^.ipv4.ip\""
par AODVNetwork.host[1].aodv askGratuitousRREP false
par AODVNetwork.host[1].aodv useHelloMessages false
par AODVNetwork.host[1].aodv useLocalRepair false
par AODVNetwork.host[1].aodv destinationOnlyFlag false
par AODVNetwork.host[1].aodv udpPort 654
par AODVNetwork.host[1].aodv interface "\"wlan0\""
par AODVNetwork.host[1].aodv maxPeriodicJitter 0.25s
attr unit s
par AODVNetwork.host[1].aodv periodicJitter "uniform(0s, maxPeriodicJitter)"
attr unit s
par AODVNetwork.host[1].aodv maxJitter 0.005s
attr unit s
par AODVNetwork.host[1].aodv jitter "uniform(0ms, maxJitter)"
attr unit s
par AODVNetwork.host[1].aodv helloInterval 1s
attr unit s
par AODVNetwork.host[1].aodv allowedHelloLoss 2
par AODVNetwork.host[1].aodv activeRouteTimeout 3s
attr unit s
par AODVNetwork.host[1].aodv netDiameter 35
par AODVNetwork.host[1].aodv nodeTraversalTime 0.04s
attr unit s
par AODVNetwork.host[1].aodv rerrRatelimit 10
par AODVNetwork.host[1].aodv rreqRetries 2
par AODVNetwork.host[1].aodv rreqRatelimit 10
par AODVNetwork.host[1].aodv timeoutBuffer 2
par AODVNetwork.host[1].aodv ttlStart 2
par AODVNetwork.host[1].aodv ttlIncrement 2
par AODVNetwork.host[1].aodv ttlThreshold 7
par AODVNetwork.host[1].aodv localAddTTL 2
par AODVNetwork.host[1].aodv myRouteTimeout 6s
attr unit s
par AODVNetwork.host[1].aodv deletePeriod 15s
attr unit s
par AODVNetwork.host[1].aodv blacklistTimeout 5.6s
attr unit s
par AODVNetwork.host[1].aodv netTraversalTime 2.8s
attr unit s
par AODVNetwork.host[1].aodv nextHopWait 0.05s
attr unit s
par AODVNetwork.host[1].aodv pathDiscoveryTime 5.6s
attr unit s
par AODVNetwork.host[1] typename "\"inet.node.aodv.AodvRouter\""
par AODVNetwork.host[1] hasStatus true
par AODVNetwork.host[1] osgModel "\"\""
par AODVNetwork.host[1] osgModelColor "\"\""
par AODVNetwork.host[1] canvasImage "\"\""
par AODVNetwork.host[1] canvasImageColor "\"\""
par AODVNetwork.host[1] recordPcap false
par AODVNetwork.host[1] numPcapRecorders 0
par AODVNetwork.host[1] numLoInterfaces 1
par AODVNetwork.host[1] numWlanInterfaces 1
par AODVNetwork.host[1] numEthInterfaces 0
par AODVNetwork.host[1] numPppInterfaces 0
par AODVNetwork.host[1] numTunInterfaces 0
par AODVNetwork.host[1] numVirtInterfaces 0
par AODVNetwork.host[1] hasIpv4 true
par AODVNetwork.host[1] hasIpv6 false
par AODVNetwork.host[1] hasGn false
par AODVNetwork.host[1] forwarding true
par AODVNetwork.host[1] multicastForwarding false
par AODVNetwork.host[1] hasUdp true
par AODVNetwork.host[1] hasTcp true
par AODVNetwork.host[1] hasSctp false
par AODVNetwork.host[1] numApps 0
par AODVNetwork.host[2].radioIn[0].channel typename "\"ned.IdealChannel\""
par AODVNetwork.host[2].status typename "\"inet.common.lifecycle.NodeStatus\""
par AODVNetwork.host[2].status initialStatus "\"UP\""
par AODVNetwork.host[2].mobility typename "\"inet.mobility.static.StationaryMobility\""
par AODVNetwork.host[2].mobility subjectModule "\"^\""
par AODVNetwork.host[2].mobility coordinateSystemModule "\"\""
par AODVNetwork.host[2].mobility displayStringTextFormat "\"p: %p\\nv: %v\""
attr mutable ""
par AODVNetwork.host[2].mobility updateDisplayString true
par AODVNetwork.host[2].mobility constraintAreaMinX 0m
attr unit m
par AODVNetwork.host[2].mobility constraintAreaMinY 0m
attr unit m
par AODVNetwork.host[2].mobility constraintAreaMinZ 0m
attr unit m
par AODVNetwork.host[2].mobility constraintAreaMaxX 600m
attr unit m
par AODVNetwork.host[2].mobility constraintAreaMaxY 600m
attr unit m
par AODVNetwork.host[2].mobility constraintAreaMaxZ 0m
attr unit m
par AODVNetwork.host[2].mobility initialX 181.4m
attr unit m
par AODVNetwork.host[2].mobility initialY 599.424m
attr unit m
par AODVNetwork.host[2].mobility initialZ 0m
attr unit m
par AODVNetwork.host[2].mobility initialLatitude "nan deg"
attr unit deg
par AODVNetwork.host[2].mobility initialLongitude "nan deg"
attr unit deg
par AODVNetwork.host[2].mobility initialAltitude 0m
attr unit m
par AODVNetwork.host[2].mobility initialHeading 0deg
attr unit deg
par AODVNetwork.host[2].mobility initialElevation 0deg
attr unit deg
par AODVNetwork.host[2].mobility initialBank 0deg
attr unit deg
par AODVNetwork.host[2].mobility initFromDisplayString true
par AODVNetwork.host[2].mobility updateFromDisplayString true
par AODVNetwork.host[2].interfaceTable typename "\"inet.networklayer.common.InterfaceTable\""
par AODVNetwork.host[2].interfaceTable displayAddresses false
par AODVNetwork.host[2].li typename "\"inet.common.MessageDispatcher\""
par AODVNetwork.host[2].li displayStringTextFormat "\"processed %p pk (%l)\""
par AODVNetwork.host[2].lo[0].upperLayerIn.channel typename "\"ned.IdealChannel\""
par AODVNetwork.host[2].lo[0].lo.upperLayerOut.channel typename "\"ned.IdealChannel\""
par AODVNetwork.host[2].lo[0].lo typename "\"inet.linklayer.loopback.Loopback\""
par AODVNetwork.host[2].lo[0].lo interfaceTableModule "\"AODVNetwork.host[2].interfaceTable\""
par AODVNetwork.host[2].lo[0].lo mtu 4470B
attr unit B
scalar AODVNetwork.host[2].lo[0].lo rcvdPkFromHl:count 0
attr interpolationmode none
attr source packetReceivedFromUpper
attr title "packets received from higher layer, count"
scalar AODVNetwork.host[2].lo[0].lo rcvdPkFromHl:sum(packetBytes) 0
attr interpolationmode none
attr source packetReceivedFromUpper
attr title "packets received from higher layer, sum(packetBytes)"
scalar AODVNetwork.host[2].lo[0].lo passedUpPk:count 0
attr interpolationmode none
attr source packetSentToUpper
attr title "packets passed to higher layer, count"
scalar AODVNetwork.host[2].lo[0].lo passedUpPk:sum(packetBytes) 0
attr interpolationmode none
attr source packetSentToUpper
attr title "packets passed to higher layer, sum(packetBytes)"
par AODVNetwork.host[2].lo[0] typename "\"inet.linklayer.loopback.LoopbackInterface\""
par AODVNetwork.host[2].lo[0] displayStringTextFormat "\"%a (%i)\\n%m\""
par AODVNetwork.host[2].lo[0] recordPcap false
par AODVNetwork.host[2].lo[0] numPcapRecorders 0
par AODVNetwork.host[2].lo[0] interfaceTableModule "\"AODVNetwork.host[2].interfaceTable\""
par AODVNetwork.host[2].wlan[0].upperLayerIn.channel typename "\"ned.IdealChannel\""
par AODVNetwork.host[2].wlan[0].radioIn.channel typename "\"ned.IdealChannel\""
par AODVNetwork.host[2].wlan[0].mac.upperLayerOut.channel typename "\"ned.IdealChannel\""
par AODVNetwork.host[2].wlan[0].mac.queue typename "\"inet.queueing.queue.DropTailQueue\""
par AODVNetwork.host[2].wlan[0].mac.queue displayStringTextFormat "\"contains %p pk (%l) pushed %u\\npulled %o removed %r dropped %d\""
par AODVNetwork.host[2].wlan[0].mac.queue packetCapacity 100
par AODVNetwork.host[2].wlan[0].mac.queue dataCapacity -1b
attr unit b
par AODVNetwork.host[2].wlan[0].mac.queue dropperClass "\"inet::queueing::PacketAtCollectionEndDropper\""
par AODVNetwork.host[2].wlan[0].mac.queue comparatorClass "\"\""
par AODVNetwork.host[2].wlan[0].mac.queue bufferModule "\"\""
scalar AODVNetwork.host[2].wlan[0].mac.queue packetPulled:count 0
attr interpolationmode none
attr title "packet pulled, count"
scalar AODVNetwork.host[2].wlan[0].mac.queue packetPulled:sum(packetBytes) 0
attr interpolationmode none
attr title "packet pulled, sum(packetBytes)"
statistic AODVNetwork.host[2].wlan[0].mac.queue queueingTime:histogram
field count 0
field mean nan
field stddev nan
field min nan
field max nan
field sum 0
field sqrsum 0
attr interpolationmode none
attr source queueingTime(packetPulled)
attr title "queueing times, histogram"
attr unit s
bin	-inf	0
bin	0	0
bin	1	0
scalar AODVNetwork.host[2].wlan[0].mac.queue queueLength:max nan
attr autoWarmupFilter false
attr interpolationmode sample-hold
attr source "warmup(count(packetPushed) - count(packetPulled) - count(packetRemoved) - count(packetDropped))"
attr title "queue length, max"
attr type int
scalar AODVNetwork.host[2].wlan[0].mac.queue queueLength:timeavg nan
attr autoWarmupFilter false
attr interpolationmode sample-hold
attr source "warmup(count(packetPushed) - count(packetPulled) - count(packetRemoved) - count(packetDropped))"
attr title "queue length, timeavg"
attr type int
scalar AODVNetwork.host[2].wlan[0].mac.queue packetPushed:count 0
attr interpolationmode none
attr title "packet pushed, count"
scalar AODVNetwork.host[2].wlan[0].mac.queue packetPushed:sum(packetBytes) 0
attr interpolationmode none
attr title "packet pushed, sum(packetBytes)"
scalar AODVNetwork.host[2].wlan[0].mac.queue packetDropQueueOverflow:count 0
attr interpolationmode none
attr source packetDropReasonIsQueueOverflow(packetDropped)
attr title "packet drops: queue overflow, count"
scalar AODVNetwork.host[2].wlan[0].mac.queue packetDropQueueOverflow:sum(packetBytes) 0
attr interpolationmode none
attr source packetDropReasonIsQueueOverflow(packetDropped)
attr title "packet drops: queue overflow, sum(packetBytes)"
scalar AODVNetwork.host[2].wlan[0].mac.queue packetRemoved:count 0
attr interpolationmode none
attr title "packets removed, count"
scalar AODVNetwork.host[2].wlan[0].mac.queue packetRemoved:sum(packetBytes) 0
attr interpolationmode none
attr title "packets removed, sum(packetBytes)"
par AODVNetwork.host[2].wlan[0].mac typename "\"inet.linklayer.acking.AckingMac\""
par AODVNetwork.host[2].wlan[0].mac interfaceTableModule "\"AODVNetwork.host[2].interfaceTable\""
par AODVNetwork.host[2].wlan[0].mac address "\"auto\""
attr mutable ""
par AODVNetwork.host[2].wlan[0].mac bitrate 2e+06bps
attr unit bps
par AODVNetwork.host[2].wlan[0].mac mtu 4470B
attr unit B
par AODVNetwork.host[2].wlan[0].mac headerLength 23B
attr unit B
par AODVNetwork.host[2].wlan[0].mac promiscuous false
par AODVNetwork.host[2].wlan[0].mac fullDuplex true
par AODVNetwork.host[2].wlan[0].mac useAck true
par AODVNetwork.host[2].wlan[0].mac ackTimeout 0.1s
attr unit s
scalar AODVNetwork.host[2].wlan[0].mac rcvdPkFromLl:count 0
attr interpolationmode none
attr source packetReceivedFromLower
attr title "packets received from lower layer, count"
scalar AODVNetwork.host[2].wlan[0].mac rcvdPkFromLl:sum(packetBytes) 0
attr interpolationmode none
attr source packetReceivedFromLower
attr title "packets received from lower layer, sum(packetBytes)"
scalar AODVNetwork.host[2].wlan[0].mac sentDownPk:count 0
attr interpolationmode none
attr source packetSentToLower
attr title "packets sent to lower layer, count"
scalar AODVNetwork.host[2].wlan[0].mac sentDownPk:sum(packetBytes) 0
attr interpolationmode none
attr source packetSentToLower
attr title "packets sent to lower layer, sum(packetBytes)"
scalar AODVNetwork.host[2].wlan[0].mac rcvdPkFromHl:count 0
attr interpolationmode none
attr source packetReceivedFromUpper
attr title "packets received from higher layer, count"
scalar AODVNetwork.host[2].wlan[0].mac rcvdPkFromHl:sum(packetBytes) 0
attr interpolationmode none
attr source packetReceivedFromUpper
attr title "packets received from higher layer, sum(packetBytes)"
scalar AODVNetwork.host[2].wlan[0].mac passedUpPk:count 0
attr interpolationmode none
attr source packetSentToUpper
attr title "packets passed to higher layer, count"
scalar AODVNetwork.host[2].wlan[0].mac passedUpPk:sum(packetBytes) 0
attr interpolationmode none
attr source packetSentToUpper
attr title "packets passed to higher layer, sum(packetBytes)"
scalar AODVNetwork.host[2].wlan[0].mac packetDropIncorrectlyReceived:count 0
attr interpolationmode none
attr source packetDropReasonIsIncorrectlyReceived(packetDropped)
attr title "packet drop: incorrectly received, count"
scalar AODVNetwork.host[2].wlan[0].mac packetDropIncorrectlyReceived:sum(packetBytes) 0
attr interpolationmode none
attr source packetDropReasonIsIncorrectlyReceived(packetDropped)
attr title "packet drop: incorrectly received, sum(packetBytes)"
scalar AODVNetwork.host[2].wlan[0].mac packetDropInterfaceDown:count 0
attr interpolationmode none
attr source packetDropReasonIsInterfaceDown(packetDropped)
attr title "packet drop: interface down, count"
scalar AODVNetwork.host[2].wlan[0].mac packetDropInterfaceDown:sum(packetBytes) 0
attr interpolationmode none
attr source packetDropReasonIsInterfaceDown(packetDropped)
attr title "packet drop: interface down, sum(packetBytes)"
scalar AODVNetwork.host[2].wlan[0].mac packetDropNotAddressedToUs:count 0
attr interpolationmode none
attr source packetDropReasonIsNotAddressedToUs(packetDropped)
attr title "packet drop: not addressed to us, count"
scalar AODVNetwork.host[2].wlan[0].mac packetDropNotAddressedToUs:sum(packetBytes) 0
attr interpolationmode none
attr source packetDropReasonIsNotAddressedToUs(packetDropped)
attr title "packet drop: not addressed to us, sum(packetBytes)"
scalar AODVNetwork.host[2].wlan[0].mac linkBroken:count 0
attr interpolationmode none
attr source linkBroken
attr title "link break, count"
par AODVNetwork.host[2].wlan[0].radio.antenna typename "\"inet.physicallayer.wireless.common.antenna.IsotropicAntenna\""
par AODVNetwork.host[2].wlan[0].radio.antenna mobilityModule "\"^.^.^.mobility\""
par AODVNetwork.host[2].wlan[0].radio.antenna numAntennas 1
par AODVNetwork.host[2].wlan[0].radio.transmitter typename "\"inet.physicallayer.wireless.unitdisk.UnitDiskTransmitter\""
par AODVNetwork.host[2].wlan[0].radio.transmitter preambleDuration 0s
attr unit s
par AODVNetwork.host[2].wlan[0].radio.transmitter headerLength 96b
attr unit b
par AODVNetwork.host[2].wlan[0].radio.transmitter bitrate 2e+06bps
attr unit bps
par AODVNetwork.host[2].wlan[0].radio.transmitter communicationRange 250m
attr unit m
par AODVNetwork.host[2].wlan[0].radio.transmitter interferenceRange 0m
attr unit m
par AODVNetwork.host[2].wlan[0].radio.transmitter detectionRange 0m
attr unit m
par AODVNetwork.host[2].wlan[0].radio.receiver typename "\"inet.physicallayer.wireless.unitdisk.UnitDiskReceiver\""
par AODVNetwork.host[2].wlan[0].radio.receiver ignoreInterference true
par AODVNetwork.host[2].wlan[0].radio typename "\"inet.physicallayer.wireless.unitdisk.UnitDiskRadio\""
par AODVNetwork.host[2].wlan[0].radio radioMediumModule "\"radioMedium\""
par AODVNetwork.host[2].wlan[0].radio energySourceModule "\"\""
par AODVNetwork.host[2].wlan[0].radio initialRadioMode "\"off\""
attr enum off,sleep,receiver,transmitter,transceiver
par AODVNetwork.host[2].wlan[0].radio switchingTimes "\"ms 0 0 0 0 0 0 0 0 0 0 0 0 0 0 0 0 0 0 0 0 0 0 0 0 0\""
par AODVNetwork.host[2].wlan[0].radio sendRawBytes false
par AODVNetwork.host[2].wlan[0].radio separateTransmissionParts false
par AODVNetwork.host[2].wlan[0].radio separateReceptionParts false
par AODVNetwork.host[2].wlan[0].radio displayCommunicationRange false
par AODVNetwork.host[2].wlan[0].radio displayInterferenceRange false
statistic AODVNetwork.host[2].wlan[0].radio minSnir:histogram
field count 0
field mean nan
field stddev nan
field min nan
field max nan
field sum 0
field sqrsum 0
attr source minimumSnir(packetSentToUpper)
attr title "Min SNIR, histogram"
bin	-inf	0
bin	0	0
bin	1	0
statistic AODVNetwork.host[2].wlan[0].radio packetErrorRate:histogram
field count 0
field mean nan
field stddev nan
field min nan
field max nan
field sum 0
field sqrsum 0
attr source packetErrorRate(packetSentToUpper)
attr title "Packet error rate, histogram"
bin	-inf	0
bin	0	0
bin	1	0
statistic AODVNetwork.host[2].wlan[0].radio bitErrorRate:histogram
field count 0
field mean nan
field stddev nan
field min nan
field max nan
field sum 0
field sqrsum 0
attr source bitErrorRate(packetSentToUpper)
attr title "Bit error rate, histogram"
bin	-inf	0
bin	0	0
bin	1	0
statistic AODVNetwork.host[2].wlan[0].radio symbolErrorRate:histogram
field count 0
field mean nan
field stddev nan
field min nan
field max nan
field sum 0
field sqrsum 0
attr source symbolErrorRate(packetSentToUpper)
attr title "Symbol error rate, histogram"
bin	-inf	0
bin	0	0
bin	1	0
scalar AODVNetwork.host[2].wlan[0].radio transmissionState:count 1
attr interpolationmode sample-hold
attr source transmissionStateChanged
attr title "Radio transmission state, count"
scalar AODVNetwork.host[2].wlan[0].radio receptionState:count 1
attr interpolationmode sample-hold
attr source receptionStateChanged
attr title "Radio reception state, count"
scalar AODVNetwork.host[2].wlan[0].radio radioMode:count 3
attr interpolationmode sample-hold
attr source radioModeChanged
attr title "Radio mode, count"
par AODVNetwork.host[2].wlan[0] typename "\"inet.linklayer.acking.AckingWirelessInterface\""
par AODVNetwork.host[2].wlan[0] displayStringTextFormat "\"%a (%i)\\n%m\""
par AODVNetwork.host[2].wlan[0] recordPcap false
par AODVNetwork.host[2].wlan[0] numPcapRecorders 0
par AODVNetwork.host[2].wlan[0] interfaceTableModule "\"AODVNetwork.host[2].interfaceTable\""
par AODVNetwork.host[2].wlan[0] energySourceModule "\"\""
par AODVNetwork.host[2].wlan[0] bitrate 2e+06bps
attr unit bps
par AODVNetwork.host[2].ipv4.transportIn.channel typename "\"ned.IdealChannel\""
[...]
attr title "packet drop: interface down, count"
scalar AODVNetwork.host[19].wlan[0].mac packetDropInterfaceDown:sum(packetBytes) 0
attr interpolationmode none
attr source packetDropReasonIsInterfaceDown(packetDropped)
attr title "packet drop: interface down, sum(packetBytes)"
scalar AODVNetwork.host[19].wlan[0].mac packetDropNotAddressedToUs:count 0
attr interpolationmode none
attr source packetDropReasonIsNotAddressedToUs(packetDropped)
attr title "packet drop: not addressed to us, count"
scalar AODVNetwork.host[19].wlan[0].mac packetDropNotAddressedToUs:sum(packetBytes) 0
attr interpolationmode none
attr source packetDropReasonIsNotAddressedToUs(packetDropped)
attr title "packet drop: not addressed to us, sum(packetBytes)"
scalar AODVNetwork.host[19].wlan[0].mac linkBroken:count 0
attr interpolationmode none
attr source linkBroken
attr title "link break, count"
par AODVNetwork.host[19].wlan[0].radio.antenna typename "\"inet.physicallayer.wireless.common.antenna.IsotropicAntenna\""
par AODVNetwork.host[19].wlan[0].radio.antenna mobilityModule "\"^.^.^.mobility\""
par AODVNetwork.host[19].wlan[0].radio.antenna numAntennas 1
par AODVNetwork.host[19].wlan[0].radio.transmitter typename "\"inet.physicallayer.wireless.unitdisk.UnitDiskTransmitter\""
par AODVNetwork.host[19].wlan[0].radio.transmitter preambleDuration 0s
attr unit s
par AODVNetwork.host[19].wlan[0].radio.transmitter headerLength 96b
attr unit b
par AODVNetwork.host[19].wlan[0].radio.transmitter bitrate 2e+06bps
attr unit bps
par AODVNetwork.host[19].wlan[0].radio.transmitter communicationRange 250m
attr unit m
par AODVNetwork.host[19].wlan[0].radio.transmitter interferenceRange 0m
attr unit m
par AODVNetwork.host[19].wlan[0].radio.transmitter detectionRange 0m
attr unit m
par AODVNetwork.host[19].wlan[0].radio.receiver typename "\"inet.physicallayer.wireless.unitdisk.UnitDiskReceiver\""
par AODVNetwork.host[19].wlan[0].radio.receiver ignoreInterference true
par AODVNetwork.host[19].wlan[0].radio typename "\"inet.physicallayer.wireless.unitdisk.UnitDiskRadio\""
par AODVNetwork.host[19].wlan[0].radio radioMediumModule "\"radioMedium\""
par AODVNetwork.host[19].wlan[0].radio energySourceModule "\"\""
par AODVNetwork.host[19].wlan[0].radio initialRadioMode "\"off\""
attr enum off,sleep,receiver,transmitter,transceiver
par AODVNetwork.host[19].wlan[0].radio switchingTimes "\"ms 0 0 0 0 0 0 0 0 0 0 0 0 0 0 0 0 0 0 0 0 0 0 0 0 0\""
par AODVNetwork.host[19].wlan[0].radio sendRawBytes false
par AODVNetwork.host[19].wlan[0].radio separateTransmissionParts false
par AODVNetwork.host[19].wlan[0].radio separateReceptionParts false
par AODVNetwork.host[19].wlan[0].radio displayCommunicationRange false
par AODVNetwork.host[19].wlan[0].radio displayInterferenceRange false
statistic AODVNetwork.host[19].wlan[0].radio minSnir:histogram
field count 0
field mean nan
field stddev nan
field min nan
field max nan
field sum 0
field sqrsum 0
attr source minimumSnir(packetSentToUpper)
attr title "Min SNIR, histogram"
bin	-inf	0
bin	0	0
bin	1	0
statistic AODVNetwork.host[19].wlan[0].radio packetErrorRate:histogram
field count 0
field mean nan
field stddev nan
field min nan
field max nan
field sum 0
field sqrsum 0
attr source packetErrorRate(packetSentToUpper)
attr title "Packet error rate, histogram"
bin	-inf	0
bin	0	0
bin	1	0
statistic AODVNetwork.host[19].wlan[0].radio bitErrorRate:histogram
field count 0
field mean nan
field stddev nan
field min nan
field max nan
field sum 0
field sqrsum 0
attr source bitErrorRate(packetSentToUpper)
attr title "Bit error rate, histogram"
bin	-inf	0
bin	0	0
bin	1	0
statistic AODVNetwork.host[19].wlan[0].radio symbolErrorRate:histogram
field count 0
field mean nan
field stddev nan
field min nan
field max nan
field sum 0
field sqrsum 0
attr source symbolErrorRate(packetSentToUpper)
attr title "Symbol error rate, histogram"
bin	-inf	0
bin	0	0
bin	1	0
scalar AODVNetwork.host[19].wlan[0].radio transmissionState:count 1
attr interpolationmode sample-hold
attr source transmissionStateChanged
attr title "Radio transmission state, count"
scalar AODVNetwork.host[19].wlan[0].radio receptionState:count 1
attr interpolationmode sample-hold
attr source receptionStateChanged
attr title "Radio reception state, count"
scalar AODVNetwork.host[19].wlan[0].radio radioMode:count 3
attr interpolationmode sample-hold
attr source radioModeChanged
attr title "Radio mode, count"
par AODVNetwork.host[19].wlan[0] typename "\"inet.linklayer.acking.AckingWirelessInterface\""
par AODVNetwork.host[19].wlan[0] displayStringTextFormat "\"%a (%i)\\n%m\""
par AODVNetwork.host[19].wlan[0] recordPcap false
par AODVNetwork.host[19].wlan[0] numPcapRecorders 0
par AODVNetwork.host[19].wlan[0] interfaceTableModule "\"AODVNetwork.host[19].interfaceTable\""
par AODVNetwork.host[19].wlan[0] energySourceModule "\"\""
par AODVNetwork.host[19].wlan[0] bitrate 2e+06bps
attr unit bps
par AODVNetwork.host[19].ipv4.transportIn.channel typename "\"ned.IdealChannel\""
par AODVNetwork.host[19].ipv4.up.out[0].channel typename "\"ned.IdealChannel\""
par AODVNetwork.host[19].ipv4.lp.out[2].channel typename "\"ned.IdealChannel\""
par AODVNetwork.host[19].ipv4.ifIn.channel typename "\"ned.IdealChannel\""
par AODVNetwork.host[19].ipv4.configurator typename "\"inet.networklayer.configurator.ipv4.Ipv4NodeConfigurator\""
par AODVNetwork.host[19].ipv4.configurator interfaceTableModule "\"AODVNetwork.host[19].interfaceTable\""
par AODVNetwork.host[19].ipv4.configurator routingTableModule "\"AODVNetwork.host[19].ipv4.routingTable\""
par AODVNetwork.host[19].ipv4.configurator networkConfiguratorModule "\"configurator\""
par AODVNetwork.host[19].ipv4.configurator configureRoutingTable true
par AODVNetwork.host[19].ipv4.routingTable typename "\"inet.networklayer.ipv4.Ipv4RoutingTable\""
par AODVNetwork.host[19].ipv4.routingTable interfaceTableModule "\"AODVNetwork.host[19].interfaceTable\""
par AODVNetwork.host[19].ipv4.routingTable routerId "\"auto\""
par AODVNetwork.host[19].ipv4.routingTable netmaskRoutes "\"*\""
par AODVNetwork.host[19].ipv4.routingTable forwarding true
par AODVNetwork.host[19].ipv4.routingTable multicastForwarding false
par AODVNetwork.host[19].ipv4.routingTable useAdminDist false
par AODVNetwork.host[19].ipv4.routingTable routingFile "\"\""
par AODVNetwork.host[19].ipv4.natTable typename "\"inet.networklayer.ipv4.Ipv4NatTable\""
par AODVNetwork.host[19].ipv4.natTable networkProtocolModule "\"^.ip\""
par AODVNetwork.host[19].ipv4.natTable config "<config/> at content:1"
par AODVNetwork.host[19].ipv4.up typename "\"inet.common.MessageDispatcher\""
par AODVNetwork.host[19].ipv4.up displayStringTextFormat "\"processed %p pk (%l)\""
par AODVNetwork.host[19].ipv4.igmp typename "\"inet.networklayer.ipv4.Igmpv2\""
par AODVNetwork.host[19].ipv4.igmp interfaceTableModule "\"AODVNetwork.host[19].interfaceTable\""
par AODVNetwork.host[19].ipv4.igmp routingTableModule "\"AODVNetwork.host[19].ipv4.routingTable\""
par AODVNetwork.host[19].ipv4.igmp crcMode "\"declared\""
attr enum declared,computed
par AODVNetwork.host[19].ipv4.igmp enabled true
par AODVNetwork.host[19].ipv4.igmp robustnessVariable 2
par AODVNetwork.host[19].ipv4.igmp queryInterval 125s
attr unit s
par AODVNetwork.host[19].ipv4.igmp queryResponseInterval 10s
attr unit s
par AODVNetwork.host[19].ipv4.igmp groupMembershipInterval 260s
attr unit s
par AODVNetwork.host[19].ipv4.igmp otherQuerierPresentInterval 255s
attr unit s
par AODVNetwork.host[19].ipv4.igmp startupQueryInterval 31.25s
attr unit s
par AODVNetwork.host[19].ipv4.igmp startupQueryCount 2
par AODVNetwork.host[19].ipv4.igmp lastMemberQueryInterval 1s
attr unit s
par AODVNetwork.host[19].ipv4.igmp lastMemberQueryCount 2
par AODVNetwork.host[19].ipv4.igmp unsolicitedReportInterval 10s
attr unit s
par AODVNetwork.host[19].ipv4.icmp typename "\"inet.networklayer.ipv4.Icmp\""
par AODVNetwork.host[19].ipv4.icmp interfaceTableModule "\"AODVNetwork.host[19].interfaceTable\""
par AODVNetwork.host[19].ipv4.icmp routingTableModule "\"AODVNetwork.host[19].ipv4.routingTable\""
par AODVNetwork.host[19].ipv4.icmp crcMode "\"declared\""
attr enum declared,computed
attr mutable ""
par AODVNetwork.host[19].ipv4.icmp quoteLength 8B
attr mutable ""
attr unit B
par AODVNetwork.host[19].ipv4.mp typename "\"inet.common.MessageDispatcher\""
par AODVNetwork.host[19].ipv4.mp displayStringTextFormat "\"processed %p pk (%l)\""
par AODVNetwork.host[19].ipv4.ip typename "\"inet.networklayer.ipv4.Ipv4\""
par AODVNetwork.host[19].ipv4.ip interfaceTableModule "\"AODVNetwork.host[19].interfaceTable\""
par AODVNetwork.host[19].ipv4.ip routingTableModule "\"AODVNetwork.host[19].ipv4.routingTable\""
par AODVNetwork.host[19].ipv4.ip arpModule "\"AODVNetwork.host[19].ipv4.arp\""
par AODVNetwork.host[19].ipv4.ip icmpModule "\"AODVNetwork.host[19].ipv4.icmp\""
par AODVNetwork.host[19].ipv4.ip crcMode "\"declared\""
attr enum declared,computed
par AODVNetwork.host[19].ipv4.ip timeToLive 32
par AODVNetwork.host[19].ipv4.ip multicastTimeToLive 32
par AODVNetwork.host[19].ipv4.ip fragmentTimeout 60s
attr unit s
par AODVNetwork.host[19].ipv4.ip limitedBroadcast false
par AODVNetwork.host[19].ipv4.ip directBroadcastInterfaces "\"\""
scalar AODVNetwork.host[19].ipv4.ip packetDropAddressResolutionFailed:count 0
attr interpolationmode none
attr source packetDropReasonIsAddressResolutionFailed(packetDropped)
attr title "packet drop: address resolution failed, count"
scalar AODVNetwork.host[19].ipv4.ip packetDropAddressResolutionFailed:sum(packetBytes) 0
attr interpolationmode none
attr source packetDropReasonIsAddressResolutionFailed(packetDropped)
attr title "packet drop: address resolution failed, sum(packetBytes)"
scalar AODVNetwork.host[19].ipv4.ip packetDropHopLimitReached:count 0
attr interpolationmode none
attr source packetDropReasonIsHopLimitReached(packetDropped)
attr title "packet drop: hop limit reached, count"
scalar AODVNetwork.host[19].ipv4.ip packetDropHopLimitReached:sum(packetBytes) 0
attr interpolationmode none
attr source packetDropReasonIsHopLimitReached(packetDropped)
attr title "packet drop: hop limit reached, sum(packetBytes)"
scalar AODVNetwork.host[19].ipv4.ip packetDropForwardingDisabled:count 0
attr interpolationmode none
attr source packetDropReasonIsForwardingDisabled(packetDropped)
attr title "packet drop: forwarding disabled, count"
scalar AODVNetwork.host[19].ipv4.ip packetDropForwardingDisabled:sum(packetBytes) 0
attr interpolationmode none
attr source packetDropReasonIsForwardingDisabled(packetDropped)
attr title "packet drop: forwarding disabled, sum(packetBytes)"
scalar AODVNetwork.host[19].ipv4.ip packetDropNoInterfaceFound:count 0
attr interpolationmode none
attr source packetDropReasonIsNoInterfaceFound(packetDropped)
attr title "packet drop: no interface found, count"
scalar AODVNetwork.host[19].ipv4.ip packetDropNoInterfaceFound:sum(packetBytes) 0
attr interpolationmode none
attr source packetDropReasonIsNoInterfaceFound(packetDropped)
attr title "packet drop: no interface found, sum(packetBytes)"
scalar AODVNetwork.host[19].ipv4.ip packetDropNoRouteFound:count 0
attr interpolationmode none
attr source packetDropReasonIsNoRouteFound(packetDropped)
attr title "packet drop: no route found, count"
scalar AODVNetwork.host[19].ipv4.ip packetDropNoRouteFound:sum(packetBytes) 0
attr interpolationmode none
attr source packetDropReasonIsNoRouteFound(packetDropped)
attr title "packet drop: no route found, sum(packetBytes)"
scalar AODVNetwork.host[19].ipv4.ip packetDropUndefined:count 0
attr interpolationmode none
attr source packetDropReasonIsUndefined(packetDropped)
attr title "packet drop: undefined, count"
scalar AODVNetwork.host[19].ipv4.ip packetDropUndefined:sum(packetBytes) 0
attr interpolationmode none
attr source packetDropReasonIsUndefined(packetDropped)
attr title "packet drop: undefined, sum(packetBytes)"
par AODVNetwork.host[19].ipv4.arp typename "\"inet.networklayer.arp.ipv4.Arp\""
par AODVNetwork.host[19].ipv4.arp interfaceTableModule "\"AODVNetwork.host[19].interfaceTable\""
par AODVNetwork.host[19].ipv4.arp routingTableModule "\"AODVNetwork.host[19].ipv4.routingTable\""
par AODVNetwork.host[19].ipv4.arp retryTimeout 1s
attr unit s
par AODVNetwork.host[19].ipv4.arp retryCount 3
par AODVNetwork.host[19].ipv4.arp cacheTimeout 120s
attr unit s
par AODVNetwork.host[19].ipv4.arp proxyArpInterfaces "\"\""
scalar AODVNetwork.host[19].ipv4.arp arpReplySent:count 0
attr source arpReplySent
attr title "ARP replies sent, count"
scalar AODVNetwork.host[19].ipv4.arp arpReplySent:sum(packetBytes) 0
attr source arpReplySent
attr title "ARP replies sent, sum(packetBytes)"
scalar AODVNetwork.host[19].ipv4.arp arpRequestSent:count 0
attr source arpRequestSent
attr title "ARP request sent, count"
scalar AODVNetwork.host[19].ipv4.arp arpRequestSent:sum(packetBytes) 0
attr source arpRequestSent
attr title "ARP request sent, sum(packetBytes)"
scalar AODVNetwork.host[19].ipv4.arp arpResolutionFailed:count 0
attr title "ARP failed resolutions, count"
scalar AODVNetwork.host[19].ipv4.arp arpResolutionCompleted:count 0
attr title "ARP completed resolutions, count"
scalar AODVNetwork.host[19].ipv4.arp arpResolutionInitiated:count 0
attr title "ARP initiated resolutions, count"
par AODVNetwork.host[19].ipv4.lp typename "\"inet.common.MessageDispatcher\""
par AODVNetwork.host[19].ipv4.lp displayStringTextFormat "\"processed %p pk (%l)\""
par AODVNetwork.host[19].ipv4 typename "\"inet.networklayer.ipv4.Ipv4NetworkLayer\""
par AODVNetwork.host[19].ipv4 forwarding true
par AODVNetwork.host[19].ipv4 multicastForwarding false
par AODVNetwork.host[19].ipv4 interfaceTableModule "\"AODVNetwork.host[19].interfaceTable\""
par AODVNetwork.host[19].ipv4 displayStringTextFormat "\"%i\""
par AODVNetwork.host[19].nl typename "\"inet.common.MessageDispatcher\""
par AODVNetwork.host[19].nl displayStringTextFormat "\"processed %p pk (%l)\""
par AODVNetwork.host[19].udp typename "\"inet.transportlayer.udp.Udp\""
par AODVNetwork.host[19].udp interfaceTableModule "\"AODVNetwork.host[19].interfaceTable\""
par AODVNetwork.host[19].udp icmpModule "\"^.ipv4.icmp\""
par AODVNetwork.host[19].udp icmpv6Module "\"^.ipv6.icmpv6\""
par AODVNetwork.host[19].udp crcMode "\"declared\""
attr enum disabled,declared,computed
scalar AODVNetwork.host[19].udp packetReceived:count 0
attr interpolationmode none
attr source packetReceived
attr title "packets received, count"
scalar AODVNetwork.host[19].udp packetReceived:sum(packetBytes) 0
attr interpolationmode none
attr source packetReceived
attr title "packets received, sum(packetBytes)"
scalar AODVNetwork.host[19].udp packetSent:count 0
attr interpolationmode none
attr source packetSent
attr title "packets sent, count"
scalar AODVNetwork.host[19].udp packetSent:sum(packetBytes) 0
attr interpolationmode none
attr source packetSent
attr title "packets sent, sum(packetBytes)"
scalar AODVNetwork.host[19].udp passedUpPk:count 0
attr interpolationmode none
attr source packetSentToUpper
attr title "packets passed up, count"
scalar AODVNetwork.host[19].udp droppedPkWrongPort:count 0
attr interpolationmode none
attr source packetDropReasonIsNoPortFound(packetDropped)
attr title "packets dropped (wrong port), count"
scalar AODVNetwork.host[19].udp droppedPkBadChecksum:count 0
attr interpolationmode none
attr source packetDropReasonIsIncorrectlyReceived(packetDropped)
attr title "packets dropped (checksum error), count"
par AODVNetwork.host[19].tcp typename "\"inet.transportlayer.tcp.Tcp\""
par AODVNetwork.host[19].tcp crcMode "\"declared\""
attr enum declared,computed
par AODVNetwork.host[19].tcp advertisedWindow 7504
par AODVNetwork.host[19].tcp delayedAcksEnabled false
par AODVNetwork.host[19].tcp nagleEnabled true
par AODVNetwork.host[19].tcp limitedTransmitEnabled false
par AODVNetwork.host[19].tcp increasedIWEnabled false
par AODVNetwork.host[19].tcp sackSupport false
par AODVNetwork.host[19].tcp windowScalingSupport false
par AODVNetwork.host[19].tcp windowScalingFactor -1
par AODVNetwork.host[19].tcp timestampSupport false
par AODVNetwork.host[19].tcp mss 536
par AODVNetwork.host[19].tcp msl 120s
attr unit s
par AODVNetwork.host[19].tcp tcpAlgorithmClass "\"TcpReno\""
attr enum TcpVegas,TcpWestwood,TcpNewReno,TcpReno,TcpTahoe,TcpNoCongestionControl
par AODVNetwork.host[19].tcp useDataNotification false
par AODVNetwork.host[19].tcp dupthresh 3
par AODVNetwork.host[19].tcp initialSsthresh 4294967295
par AODVNetwork.host[19].tcp stopOperationExtraTime 0s
attr unit s
par AODVNetwork.host[19].tcp stopOperationTimeout 2s
attr unit s
par AODVNetwork.host[19].tcp ecnWillingness false
par AODVNetwork.host[19].tcp dctcpGamma 0.0625
par AODVNetwork.host[19].tn typename "\"inet.common.MessageDispatcher\""
par AODVNetwork.host[19].tn displayStringTextFormat "\"processed %p pk (%l)\""
par AODVNetwork.host[19].at typename "\"inet.common.MessageDispatcher\""
par AODVNetwork.host[19].at displayStringTextFormat "\"processed %p pk (%l)\""
par AODVNetwork.host[19].aodv typename "\"inet.routing.aodv.Aodv\""
par AODVNetwork.host[19].aodv routingTableModule "\"^.ipv4.routingTable\""
par AODVNetwork.host[19].aodv interfaceTableModule "\"AODVNetwork.host[19].interfaceTable\""
par AODVNetwork.host[19].aodv networkProtocolModule "\"^.ipv4.ip\""
par AODVNetwork.host[19].aodv askGratuitousRREP false
par AODVNetwork.host[19].aodv useHelloMessages false
par AODVNetwork.host[19].aodv useLocalRepair false
par AODVNetwork.host[19].aodv destinationOnlyFlag false
par AODVNetwork.host[19].aodv udpPort 654
par AODVNetwork.host[19].aodv interface "\"wlan0\""
par AODVNetwork.host[19].aodv maxPeriodicJitter 0.25s
attr unit s
par AODVNetwork.host[19].aodv periodicJitter "uniform(0s, maxPeriodicJitter)"
attr unit s
par AODVNetwork.host[19].aodv maxJitter 0.005s
attr unit s
par AODVNetwork.host[19].aodv jitter "uniform(0ms, maxJitter)"
attr unit s
par AODVNetwork.host[19].aodv helloInterval 1s
attr unit s
par AODVNetwork.host[19].aodv allowedHelloLoss 2
par AODVNetwork.host[19].aodv activeRouteTimeout 3s
attr unit s
par AODVNetwork.host[19].aodv netDiameter 35
par AODVNetwork.host[19].aodv nodeTraversalTime 0.04s
attr unit s
par AODVNetwork.host[19].aodv rerrRatelimit 10
par AODVNetwork.host[19].aodv rreqRetries 2
par AODVNetwork.host[19].aodv rreqRatelimit 10
par AODVNetwork.host[19].aodv timeoutBuffer 2
par AODVNetwork.host[19].aodv ttlStart 2
par AODVNetwork.host[19].aodv ttlIncrement 2
par AODVNetwork.host[19].aodv ttlThreshold 7
par AODVNetwork.host[19].aodv localAddTTL 2
par AODVNetwork.host[19].aodv myRouteTimeout 6s
attr unit s
par AODVNetwork.host[19].aodv deletePeriod 15s
attr unit s
par AODVNetwork.host[19].aodv blacklistTimeout 5.6s
attr unit s
par AODVNetwork.host[19].aodv netTraversalTime 2.8s
attr unit s
par AODVNetwork.host[19].aodv nextHopWait 0.05s
attr unit s
par AODVNetwork.host[19].aodv pathDiscoveryTime 5.6s
attr unit s
par AODVNetwork.host[19] typename "\"inet.node.aodv.AodvRouter\""
par AODVNetwork.host[19] hasStatus true
par AODVNetwork.host[19] osgModel "\"\""
par AODVNetwork.host[19] osgModelColor "\"\""
par AODVNetwork.host[19] canvasImage "\"\""
par AODVNetwork.host[19] canvasImageColor "\"\""
par AODVNetwork.host[19] recordPcap false
par AODVNetwork.host[19] numPcapRecorders 0
par AODVNetwork.host[19] numLoInterfaces 1
par AODVNetwork.host[19] numWlanInterfaces 1
par AODVNetwork.host[19] numEthInterfaces 0
par AODVNetwork.host[19] numPppInterfaces 0
par AODVNetwork.host[19] numTunInterfaces 0
par AODVNetwork.host[19] numVirtInterfaces 0
par AODVNetwork.host[19] hasIpv4 true
par AODVNetwork.host[19] hasIpv6 false
par AODVNetwork.host[19] hasGn false
par AODVNetwork.host[19] forwarding true
par AODVNetwork.host[19] multicastForwarding false
par AODVNetwork.host[19] hasUdp true
par AODVNetwork.host[19] hasTcp true
par AODVNetwork.host[19] hasSctp false
par AODVNetwork.host[19] numApps 0
par AODVNetwork typename "\"test.simulations.aodv.AODVNetwork\""
par AODVNetwork numHosts 20

