version 3
run plain-0-20240101-18:21:32-29376
attr configname plain
attr datetime 20240101-18:21:32
attr datetimef 20240101-182132
attr experiment plain
attr inifile omnetpp.ini
attr iterationvars ""
attr iterationvarsd ""
attr iterationvarsf ""
attr measurement ""
attr network Scenario
attr processid 29376
attr repetition 0
attr replication #0
attr resultdir results
attr runnumber 0
attr seedset 0
config image-path ../../../../inet-4.3.5/inet-4.3.5/images;../../../../veins-5.2/veins-veins-5.2/images
config network Scenario
config sim-time-limit 60s
config debug-on-errors true
config cmdenv-express-mode true
config image-path ../../../../images
config *.node[*].numApps 1
config *.node[*].app[0].typename thuyloi_aodv.veins_inet.VeinsInetSampleApplication
config *.node[*].app[0].interface "\"wlan0\""
config *.node[*].wlan[0].opMode "\"p\""
config *.node[*].wlan[0].radio.typename Ieee80211DimensionalRadio
config *.node[*].wlan[0].radio.bandName "\"5.9 GHz\""
config *.node[*].wlan[0].radio.channelNumber 3
config *.node[*].wlan[0].radio.transmitter.power 20mW
config *.node[*].wlan[0].radio.bandwidth "10 MHz"
config *.node[*].wlan[*].radio.antenna.mobility.typename AttachedMobility
config *.node[*].wlan[*].radio.antenna.mobility.mobilityModule "\"^.^.^.^.mobility\""
config *.node[*].wlan[*].radio.antenna.mobility.offsetX -2.5m
config *.node[*].wlan[*].radio.antenna.mobility.offsetZ 1.5m
config *.node[*].wlan[*].radio.antenna.mobility.constraintAreaMinX 0m
config *.node[*].wlan[*].radio.antenna.mobility.constraintAreaMaxX 0m
config *.node[*].wlan[*].radio.antenna.mobility.constraintAreaMinY 0m
config *.node[*].wlan[*].radio.antenna.mobility.constraintAreaMaxY 0m
config *.node[*].wlan[*].radio.antenna.mobility.constraintAreaMinZ 0m
config *.node[*].wlan[*].radio.antenna.mobility.constraintAreaMaxZ 0m
config *.node[*].ipv4.configurator.typename HostAutoConfigurator
config *.node[*].ipv4.configurator.interfaces "\"wlan0\""
config *.node[*].ipv4.configurator.mcastGroups "\"224.0.0.1\""
config *.node[*].mobility.typename VeinsInetMobility
config *.manager.updateInterval 0.1s
config *.manager.host "\"localhost\""
config *.manager.port 9999
config *.manager.autoShutdown true
config *.manager.launchConfig "xmldoc(\"thuyloi_aodv.launchd.xml\")"
config *.manager.moduleType "\"thuyloi_aodv.veins_inet.VeinsInetCar\""
config *.physicalEnvironment.config "xmldoc(\"obstacles.xml\")"
config *.radioMedium.obstacleLoss.typename IdealObstacleLoss
config **.vector-recording true

par Scenario.radioMedium.propagation typename "\"inet.physicallayer.wireless.common.propagation.ConstantSpeedPropagation\""
par Scenario.radioMedium.propagation propagationSpeed 2.99792e+08mps
attr unit mps
par Scenario.radioMedium.propagation ignoreMovementDuringTransmission true
par Scenario.radioMedium.propagation ignoreMovementDuringPropagation true
par Scenario.radioMedium.propagation ignoreMovementDuringReception true
scalar Scenario.radioMedium.propagation "Arrival computation count" 171
par Scenario.radioMedium.analogModel typename "\"inet.physicallayer.wireless.common.analogmodel.packetlevel.DimensionalAnalogModel\""
par Scenario.radioMedium.analogModel attenuateWithCenterFrequency true
par Scenario.radioMedium.backgroundNoise typename "\"inet.physicallayer.wireless.common.backgroundnoise.IsotropicDimensionalBackgroundNoise\""
par Scenario.radioMedium.backgroundNoise powerSpectralDensity "nan dBmWpMHz"
attr unit dBmWpMHz
par Scenario.radioMedium.backgroundNoise power -110dBm
attr unit dBm
par Scenario.radioMedium.backgroundNoise bandwidth "nan Hz"
attr unit Hz
par Scenario.radioMedium.pathLoss typename "\"inet.physicallayer.wireless.common.pathloss.FreeSpacePathLoss\""
par Scenario.radioMedium.pathLoss alpha 2
par Scenario.radioMedium.pathLoss systemLoss 0dB
attr unit dB
par Scenario.radioMedium.obstacleLoss typename "\"inet.physicallayer.wireless.common.obstacleloss.IdealObstacleLoss\""
par Scenario.radioMedium.obstacleLoss physicalEnvironmentModule "\"physicalEnvironment\""
par Scenario.radioMedium.mediumLimitCache typename "\"inet.physicallayer.wireless.common.medium.MediumLimitCache\""
par Scenario.radioMedium.mediumLimitCache centerFrequency 2.4e+09Hz
attr unit Hz
par Scenario.radioMedium.mediumLimitCache maxSpeed "nan mps"
attr unit mps
par Scenario.radioMedium.mediumLimitCache maxTransmissionPower "nan W"
attr unit W
par Scenario.radioMedium.mediumLimitCache minInterferencePower -110dBm
attr unit dBm
par Scenario.radioMedium.mediumLimitCache minReceptionPower -85dBm
attr unit dBm
par Scenario.radioMedium.mediumLimitCache maxAntennaGain 0dB
attr unit dB
par Scenario.radioMedium.mediumLimitCache minInterferenceTime 1e-12s
attr unit s
par Scenario.radioMedium.mediumLimitCache maxTransmissionDuration 0.01s
attr unit s
par Scenario.radioMedium.mediumLimitCache maxCommunicationRange "nan m"
attr unit m
par Scenario.radioMedium.mediumLimitCache maxInterferenceRange "nan m"
attr unit m
par Scenario.radioMedium.communicationCache typename "\"inet.physicallayer.wireless.common.communicationcache.VectorCommunicationCache\""
par Scenario.radioMedium typename "\"inet.physicallayer.wireless.ieee80211.packetlevel.Ieee80211DimensionalRadioMedium\""
par Scenario.radioMedium physicalEnvironmentModule "\"physicalEnvironment\""
par Scenario.radioMedium signalAnalogRepresentation "\"scalar\""
attr enum unitDisk,scalar,dimensional
par Scenario.radioMedium rangeFilter "\"\""
par Scenario.radioMedium radioModeFilter false
par Scenario.radioMedium listeningFilter false
par Scenario.radioMedium macAddressFilter false
par Scenario.radioMedium recordTransmissionLog false
par Scenario.radioMedium recordReceptionLog false
scalar Scenario.radioMedium "transmission count" 9
scalar Scenario.radioMedium "signal send count" 171
scalar Scenario.radioMedium "reception computation count" 161
scalar Scenario.radioMedium "interference computation count" 444
scalar Scenario.radioMedium "reception decision computation count" 32
scalar Scenario.radioMedium "listening decision computation count" 258
scalar Scenario.radioMedium "reception cache hit" 83.35056876939
attr unit %
scalar Scenario.radioMedium "interference cache hit" 66.666666666667
attr unit %
scalar Scenario.radioMedium "noise cache hit" 0
attr unit %
scalar Scenario.radioMedium "snir cache hit" 50
attr unit %
scalar Scenario.radioMedium "reception decision cache hit" 50
attr unit %
scalar Scenario.radioMedium "reception result cache hit" 0
attr unit %
par Scenario.manager typename "\"thuyloi_aodv.veins_inet.VeinsInetManager\""
par Scenario.manager connectAt 0s
attr unit s
par Scenario.manager firstStepAt -1s
attr unit s
par Scenario.manager updateInterval 0.1s
attr unit s
par Scenario.manager moduleType "\"thuyloi_aodv.veins_inet.VeinsInetCar\""
par Scenario.manager moduleName "\"node\""
par Scenario.manager moduleDisplayString "\"*='i=veins/node/car;is=vs'\""
par Scenario.manager trafficLightModuleType "\"\""
par Scenario.manager trafficLightModuleName "\"tls\""
par Scenario.manager trafficLightFilter "\"\""
par Scenario.manager trafficLightModuleDisplayString "\"i=misc/node2;is=vs;r=0,,#707070,1\""
par Scenario.manager host "\"localhost\""
par Scenario.manager port 9999
par Scenario.manager seed -1
par Scenario.manager autoShutdown true
par Scenario.manager margin 25
par Scenario.manager roiRoads "\"\""
par Scenario.manager roiRects "\"\""
par Scenario.manager penetrationRate 1
par Scenario.manager ignoreGuiCommands false
par Scenario.manager launchConfig "<launch>...</launch> at D:/NCKH/VANET/demo/thuyloi_aodv/simulations/veins_inet/\\thuyloi_aodv.launchd.xml:34"
scalar Scenario.manager roiArea 0
par Scenario.visualizer.canvasVisualizer.sceneVisualizer typename "\"inet.visualizer.canvas.scene.SceneCanvasVisualizer\""
par Scenario.visualizer.canvasVisualizer.sceneVisualizer visualizationTargetModule "\"^.^.^\""
par Scenario.visualizer.canvasVisualizer.sceneVisualizer visualizationSubjectModule "\"^.^.^\""
par Scenario.visualizer.canvasVisualizer.sceneVisualizer tags "\"\""
par Scenario.visualizer.canvasVisualizer.sceneVisualizer physicalEnvironmentModule "\"physicalEnvironment\""
par Scenario.visualizer.canvasVisualizer.sceneVisualizer networkNodeVisualizerModule "\"^.networkNodeVisualizer\""
par Scenario.visualizer.canvasVisualizer.sceneVisualizer axisLength "nan m"
attr mutable ""
attr unit m
par Scenario.visualizer.canvasVisualizer.sceneVisualizer animationSpeed 0
par Scenario.visualizer.canvasVisualizer.sceneVisualizer sceneMinX "nan m"
attr unit m
par Scenario.visualizer.canvasVisualizer.sceneVisualizer sceneMinY "nan m"
attr unit m
par Scenario.visualizer.canvasVisualizer.sceneVisualizer sceneMinZ "nan m"
attr unit m
par Scenario.visualizer.canvasVisualizer.sceneVisualizer sceneMaxX "nan m"
attr unit m
par Scenario.visualizer.canvasVisualizer.sceneVisualizer sceneMaxY "nan m"
attr unit m
par Scenario.visualizer.canvasVisualizer.sceneVisualizer sceneMaxZ "nan m"
attr unit m
par Scenario.visualizer.canvasVisualizer.sceneVisualizer zIndex 0
par Scenario.visualizer.canvasVisualizer.sceneVisualizer viewAngle "\"x right y down z out\""
attr mutable ""
par Scenario.visualizer.canvasVisualizer.sceneVisualizer viewScale "\"1 1\""
attr mutable ""
par Scenario.visualizer.canvasVisualizer.sceneVisualizer viewTranslation "\"0 0\""
attr mutable ""
par Scenario.visualizer.canvasVisualizer.sceneVisualizer descriptionFigure "\"\""
par Scenario.visualizer.canvasVisualizer.physicalEnvironmentVisualizer typename "\"inet.visualizer.canvas.environment.PhysicalEnvironmentCanvasVisualizer\""
par Scenario.visualizer.canvasVisualizer.physicalEnvironmentVisualizer visualizationTargetModule "\"^.^.^\""
par Scenario.visualizer.canvasVisualizer.physicalEnvironmentVisualizer visualizationSubjectModule "\"^.^.^\""
par Scenario.visualizer.canvasVisualizer.physicalEnvironmentVisualizer tags "\"\""
par Scenario.visualizer.canvasVisualizer.physicalEnvironmentVisualizer physicalEnvironmentModule "\"physicalEnvironment\""
par Scenario.visualizer.canvasVisualizer.physicalEnvironmentVisualizer displayObjects true
par Scenario.visualizer.canvasVisualizer.physicalEnvironmentVisualizer zIndex 0
par Scenario.visualizer.canvasVisualizer.networkNodeVisualizer typename "\"inet.visualizer.canvas.scene.NetworkNodeCanvasVisualizer\""
par Scenario.visualizer.canvasVisualizer.networkNodeVisualizer visualizationTargetModule "\"^.^.^\""
par Scenario.visualizer.canvasVisualizer.networkNodeVisualizer visualizationSubjectModule "\"^.^.^\""
par Scenario.visualizer.canvasVisualizer.networkNodeVisualizer tags "\"\""
par Scenario.visualizer.canvasVisualizer.networkNodeVisualizer nodeFilter "\"*\""
attr mutable ""
par Scenario.visualizer.canvasVisualizer.networkNodeVisualizer annotationSpacing 4
par Scenario.visualizer.canvasVisualizer.networkNodeVisualizer placementPenalty 10
par Scenario.visualizer.canvasVisualizer.networkNodeVisualizer zIndex 0
par Scenario.visualizer.canvasVisualizer.networkConnectionVisualizer typename "\"inet.visualizer.canvas.scene.NetworkConnectionCanvasVisualizer\""
par Scenario.visualizer.canvasVisualizer.networkConnectionVisualizer visualizationTargetModule "\"^.^.^\""
par Scenario.visualizer.canvasVisualizer.networkConnectionVisualizer visualizationSubjectModule "\"^.^.^\""
par Scenario.visualizer.canvasVisualizer.networkConnectionVisualizer tags "\"\""
par Scenario.visualizer.canvasVisualizer.networkConnectionVisualizer displayNetworkConnections true
par Scenario.visualizer.canvasVisualizer.networkConnectionVisualizer nodeFilter "\"\""
attr mutable ""
par Scenario.visualizer.canvasVisualizer.networkConnectionVisualizer lineColor "\"black\""
par Scenario.visualizer.canvasVisualizer.networkConnectionVisualizer lineStyle "\"solid\""
par Scenario.visualizer.canvasVisualizer.networkConnectionVisualizer lineWidth 1
par Scenario.visualizer.canvasVisualizer.networkConnectionVisualizer zIndex 0
par Scenario.visualizer.canvasVisualizer.mobilityVisualizer typename "\"inet.visualizer.canvas.mobility.MobilityCanvasVisualizer\""
par Scenario.visualizer.canvasVisualizer.mobilityVisualizer visualizationTargetModule "\"^.^.^\""
par Scenario.visualizer.canvasVisualizer.mobilityVisualizer visualizationSubjectModule "\"^.^.^\""
par Scenario.visualizer.canvasVisualizer.mobilityVisualizer tags "\"\""
par Scenario.visualizer.canvasVisualizer.mobilityVisualizer networkNodeVisualizerModule "\"^.networkNodeVisualizer\""
par Scenario.visualizer.canvasVisualizer.mobilityVisualizer displayMobility true
par Scenario.visualizer.canvasVisualizer.mobilityVisualizer animationSpeed 0
par Scenario.visualizer.canvasVisualizer.mobilityVisualizer moduleFilter "\"**.mobility\""
attr mutable ""
par Scenario.visualizer.canvasVisualizer.mobilityVisualizer displayPositions false
par Scenario.visualizer.canvasVisualizer.mobilityVisualizer positionCircleRadius 4
par Scenario.visualizer.canvasVisualizer.mobilityVisualizer positionCircleLineWidth 1
par Scenario.visualizer.canvasVisualizer.mobilityVisualizer positionCircleLineColor "\"dark\""
attr enum light,dark
par Scenario.visualizer.canvasVisualizer.mobilityVisualizer positionCircleFillColor "\"dark\""
attr enum light,dark
par Scenario.visualizer.canvasVisualizer.mobilityVisualizer displayOrientations false
par Scenario.visualizer.canvasVisualizer.mobilityVisualizer orientationPieRadius 32
par Scenario.visualizer.canvasVisualizer.mobilityVisualizer orientationPieSize 0.2
par Scenario.visualizer.canvasVisualizer.mobilityVisualizer orientationPieOpacity 0.25
par Scenario.visualizer.canvasVisualizer.mobilityVisualizer orientationLineColor "\"black\""
par Scenario.visualizer.canvasVisualizer.mobilityVisualizer orientationLineStyle "\"solid\""
par Scenario.visualizer.canvasVisualizer.mobilityVisualizer orientationLineWidth 1
par Scenario.visualizer.canvasVisualizer.mobilityVisualizer orientationFillColor "\"blue\""
par Scenario.visualizer.canvasVisualizer.mobilityVisualizer displayVelocities false
par Scenario.visualizer.canvasVisualizer.mobilityVisualizer velocityArrowScale 1
par Scenario.visualizer.canvasVisualizer.mobilityVisualizer velocityLineColor "\"black\""
par Scenario.visualizer.canvasVisualizer.mobilityVisualizer velocityLineStyle "\"solid\""
par Scenario.visualizer.canvasVisualizer.mobilityVisualizer velocityLineWidth 1
par Scenario.visualizer.canvasVisualizer.mobilityVisualizer displayMovementTrails false
par Scenario.visualizer.canvasVisualizer.mobilityVisualizer movementTrailLineColor "\"dark\""
attr enum light,dark
par Scenario.visualizer.canvasVisualizer.mobilityVisualizer movementTrailLineStyle "\"solid\""
par Scenario.visualizer.canvasVisualizer.mobilityVisualizer movementTrailLineWidth 1
par Scenario.visualizer.canvasVisualizer.mobilityVisualizer trailLength 100
par Scenario.visualizer.canvasVisualizer.mobilityVisualizer zIndex 0
par Scenario.visualizer.canvasVisualizer.statisticVisualizer typename "\"inet.visualizer.canvas.common.StatisticCanvasVisualizer\""
par Scenario.visualizer.canvasVisualizer.statisticVisualizer visualizationTargetModule "\"^.^.^\""
par Scenario.visualizer.canvasVisualizer.statisticVisualizer visualizationSubjectModule "\"^.^.^\""
par Scenario.visualizer.canvasVisualizer.statisticVisualizer tags "\"\""
par Scenario.visualizer.canvasVisualizer.statisticVisualizer networkNodeVisualizerModule "\"^.networkNodeVisualizer\""
par Scenario.visualizer.canvasVisualizer.statisticVisualizer displayStatistics true
par Scenario.visualizer.canvasVisualizer.statisticVisualizer signalName "\"\""
par Scenario.visualizer.canvasVisualizer.statisticVisualizer statisticName "\"\""
par Scenario.visualizer.canvasVisualizer.statisticVisualizer statisticUnit "\"\""
par Scenario.visualizer.canvasVisualizer.statisticVisualizer statisticExpression "\"\""
par Scenario.visualizer.canvasVisualizer.statisticVisualizer sourceFilter "\"**\""
attr mutable ""
par Scenario.visualizer.canvasVisualizer.statisticVisualizer format "\"%n: %v %u\""
attr mutable ""
par Scenario.visualizer.canvasVisualizer.statisticVisualizer unit "\"\""
par Scenario.visualizer.canvasVisualizer.statisticVisualizer font "\"<default>\""
par Scenario.visualizer.canvasVisualizer.statisticVisualizer textColor "\"black\""
par Scenario.visualizer.canvasVisualizer.statisticVisualizer backgroundColor "\"white\""
par Scenario.visualizer.canvasVisualizer.statisticVisualizer opacity 1
par Scenario.visualizer.canvasVisualizer.statisticVisualizer placementHint "\"top\""
par Scenario.visualizer.canvasVisualizer.statisticVisualizer placementPriority 0
par Scenario.visualizer.canvasVisualizer.statisticVisualizer zIndex 10
par Scenario.visualizer.canvasVisualizer.statisticVisualizer propertyName "\"\""
par Scenario.visualizer.canvasVisualizer.statisticVisualizer propertyIndex "\"\""
par Scenario.visualizer.canvasVisualizer.infoVisualizer typename "\"inet.visualizer.canvas.common.InfoCanvasVisualizer\""
par Scenario.visualizer.canvasVisualizer.infoVisualizer visualizationTargetModule "\"^.^.^\""
par Scenario.visualizer.canvasVisualizer.infoVisualizer visualizationSubjectModule "\"^.^.^\""
par Scenario.visualizer.canvasVisualizer.infoVisualizer tags "\"\""
par Scenario.visualizer.canvasVisualizer.infoVisualizer networkNodeVisualizerModule "\"^.networkNodeVisualizer\""
par Scenario.visualizer.canvasVisualizer.infoVisualizer displayInfos true
par Scenario.visualizer.canvasVisualizer.infoVisualizer modules "\"\""
attr mutable ""
par Scenario.visualizer.canvasVisualizer.infoVisualizer format "\"%t\""
attr mutable ""
par Scenario.visualizer.canvasVisualizer.infoVisualizer font "\"<default>\""
par Scenario.visualizer.canvasVisualizer.infoVisualizer textColor "\"black\""
par Scenario.visualizer.canvasVisualizer.infoVisualizer backgroundColor "\"white\""
par Scenario.visualizer.canvasVisualizer.infoVisualizer opacity 1
par Scenario.visualizer.canvasVisualizer.infoVisualizer placementHint "\"top\""
par Scenario.visualizer.canvasVisualizer.infoVisualizer placementPriority 0
par Scenario.visualizer.canvasVisualizer.infoVisualizer zIndex 10
par Scenario.visualizer.canvasVisualizer.energyStorageVisualizer typename "\"inet.visualizer.canvas.power.EnergyStorageCanvasVisualizer\""
par Scenario.visualizer.canvasVisualizer.energyStorageVisualizer visualizationTargetModule "\"^.^.^\""
par Scenario.visualizer.canvasVisualizer.energyStorageVisualizer visualizationSubjectModule "\"^.^.^\""
par Scenario.visualizer.canvasVisualizer.energyStorageVisualizer tags "\"\""
par Scenario.visualizer.canvasVisualizer.energyStorageVisualizer networkNodeVisualizerModule "\"^.networkNodeVisualizer\""
par Scenario.visualizer.canvasVisualizer.energyStorageVisualizer displayEnergyStorages false
par Scenario.visualizer.canvasVisualizer.energyStorageVisualizer energyStorageFilter "\"**\""
par Scenario.visualizer.canvasVisualizer.energyStorageVisualizer color "\"green\""
par Scenario.visualizer.canvasVisualizer.energyStorageVisualizer width 8
par Scenario.visualizer.canvasVisualizer.energyStorageVisualizer height 24
par Scenario.visualizer.canvasVisualizer.energyStorageVisualizer spacing 2
par Scenario.visualizer.canvasVisualizer.energyStorageVisualizer placementHint "\"right\""
par Scenario.visualizer.canvasVisualizer.energyStorageVisualizer placementPriority 0
par Scenario.visualizer.canvasVisualizer.energyStorageVisualizer zIndex 10
par Scenario.visualizer.canvasVisualizer.mediumVisualizer typename "\"inet.visualizer.canvas.physicallayer.MediumCanvasVisualizer\""
par Scenario.visualizer.canvasVisualizer.mediumVisualizer visualizationTargetModule "\"^.^.^\""
par Scenario.visualizer.canvasVisualizer.mediumVisualizer visualizationSubjectModule "\"^.^.^\""
par Scenario.visualizer.canvasVisualizer.mediumVisualizer tags "\"\""
par Scenario.visualizer.canvasVisualizer.mediumVisualizer mediumModule "\"radioMedium\""
par Scenario.visualizer.canvasVisualizer.mediumVisualizer networkNodeVisualizerModule "\"^.networkNodeVisualizer\""
par Scenario.visualizer.canvasVisualizer.mediumVisualizer nodeFilter "\"*\""
attr mutable ""
par Scenario.visualizer.canvasVisualizer.mediumVisualizer interfaceFilter "\"*\""
attr mutable ""
par Scenario.visualizer.canvasVisualizer.mediumVisualizer packetFilter "\"*\""
attr mutable ""
par Scenario.visualizer.canvasVisualizer.mediumVisualizer packetDataFilter "\"*\""
attr mutable ""
par Scenario.visualizer.canvasVisualizer.mediumVisualizer displaySignals false
par Scenario.visualizer.canvasVisualizer.mediumVisualizer signalColor "\"dark\""
attr enum light,dark
par Scenario.visualizer.canvasVisualizer.mediumVisualizer signalPropagationAnimationSpeed "nan "
attr mutable ""
par Scenario.visualizer.canvasVisualizer.mediumVisualizer signalPropagationAnimationTime 1s
attr unit s
par Scenario.visualizer.canvasVisualizer.mediumVisualizer signalPropagationAdditionalTime 0s
attr unit s
par Scenario.visualizer.canvasVisualizer.mediumVisualizer signalTransmissionAnimationSpeed "nan "
attr mutable ""
par Scenario.visualizer.canvasVisualizer.mediumVisualizer signalTransmissionAnimationTime 1s
attr unit s
par Scenario.visualizer.canvasVisualizer.mediumVisualizer signalAnimationSpeedChangeTimeMode "\"realTime\""
attr enum realTime,animationTime,simulationTime
par Scenario.visualizer.canvasVisualizer.mediumVisualizer signalAnimationSpeedChangeTime 1s
attr unit s
par Scenario.visualizer.canvasVisualizer.mediumVisualizer displaySignalDepartures false
par Scenario.visualizer.canvasVisualizer.mediumVisualizer signalDepartureImage "\"misc/signal_departure.png\""
par Scenario.visualizer.canvasVisualizer.mediumVisualizer signalDeparturePlacementHint "\"topCenter\""
par Scenario.visualizer.canvasVisualizer.mediumVisualizer signalDeparturePlacementPriority 1
par Scenario.visualizer.canvasVisualizer.mediumVisualizer displaySignalArrivals false
par Scenario.visualizer.canvasVisualizer.mediumVisualizer signalArrivalImage "\"misc/signal_arrival.png\""
par Scenario.visualizer.canvasVisualizer.mediumVisualizer signalArrivalPlacementHint "\"topCenter\""
par Scenario.visualizer.canvasVisualizer.mediumVisualizer signalArrivalPlacementPriority -1
par Scenario.visualizer.canvasVisualizer.mediumVisualizer displayCommunicationRanges false
par Scenario.visualizer.canvasVisualizer.mediumVisualizer communicationRangeLineColor "\"blue\""
par Scenario.visualizer.canvasVisualizer.mediumVisualizer communicationRangeLineStyle "\"solid\""
par Scenario.visualizer.canvasVisualizer.mediumVisualizer communicationRangeLineWidth 1
par Scenario.visualizer.canvasVisualizer.mediumVisualizer displayInterferenceRanges false
par Scenario.visualizer.canvasVisualizer.mediumVisualizer interferenceRangeLineColor "\"gray\""
par Scenario.visualizer.canvasVisualizer.mediumVisualizer interferenceRangeLineStyle "\"solid\""
par Scenario.visualizer.canvasVisualizer.mediumVisualizer interferenceRangeLineWidth 1
par Scenario.visualizer.canvasVisualizer.mediumVisualizer autoPowerAxis true
par Scenario.visualizer.canvasVisualizer.mediumVisualizer signalMinPower "inf dBmW"
attr unit dBmW
par Scenario.visualizer.canvasVisualizer.mediumVisualizer signalMaxPower 0dBmW
attr unit dBmW
par Scenario.visualizer.canvasVisualizer.mediumVisualizer signalMinPowerDensity "inf dBmWpMHz"
attr unit dBmWpMHz
par Scenario.visualizer.canvasVisualizer.mediumVisualizer signalMaxPowerDensity "-inf dBmWpMHz"
attr unit dBmWpMHz
par Scenario.visualizer.canvasVisualizer.mediumVisualizer autoTimeAxis true
par Scenario.visualizer.canvasVisualizer.mediumVisualizer signalMinTime 0s
attr unit s
par Scenario.visualizer.canvasVisualizer.mediumVisualizer signalMaxTime 0s
attr unit s
par Scenario.visualizer.canvasVisualizer.mediumVisualizer autoFrequencyAxis true
par Scenario.visualizer.canvasVisualizer.mediumVisualizer signalMinFrequency "inf Hz"
attr unit Hz
par Scenario.visualizer.canvasVisualizer.mediumVisualizer signalMaxFrequency "-inf Hz"
attr unit Hz
par Scenario.visualizer.canvasVisualizer.mediumVisualizer displayMainPowerDensityMap false
par Scenario.visualizer.canvasVisualizer.mediumVisualizer mainPowerDensityMapPixmapDensity 1
par Scenario.visualizer.canvasVisualizer.mediumVisualizer mainPowerDensityMapMinX 0
par Scenario.visualizer.canvasVisualizer.mediumVisualizer mainPowerDensityMapMaxX "nan "
par Scenario.visualizer.canvasVisualizer.mediumVisualizer mainPowerDensityMapMinY 0
par Scenario.visualizer.canvasVisualizer.mediumVisualizer mainPowerDensityMapMaxY "nan "
par Scenario.visualizer.canvasVisualizer.mediumVisualizer mainPowerDensityMapZ 0
par Scenario.visualizer.canvasVisualizer.mediumVisualizer mainPowerDensityMapFigureXTickCount 3
par Scenario.visualizer.canvasVisualizer.mediumVisualizer mainPowerDensityMapFigureYTickCount 3
par Scenario.visualizer.canvasVisualizer.mediumVisualizer displayPowerDensityMaps false
par Scenario.visualizer.canvasVisualizer.mediumVisualizer powerDensityMapMode "\"auto\""
attr enum total,signal,auto
par Scenario.visualizer.canvasVisualizer.mediumVisualizer powerDensityMapPixelMode "\"mean\""
attr enum sample,partition,mean
par Scenario.visualizer.canvasVisualizer.mediumVisualizer powerDensityMapApproximationSize 10
par Scenario.visualizer.canvasVisualizer.mediumVisualizer powerDensityMapCenterFrequency "nan Hz"
attr mutable ""
attr unit Hz
par Scenario.visualizer.canvasVisualizer.mediumVisualizer powerDensityMapBandwidth 0Hz
attr mutable ""
attr unit Hz
par Scenario.visualizer.canvasVisualizer.mediumVisualizer powerDensityMapFigureWidth 200
par Scenario.visualizer.canvasVisualizer.mediumVisualizer powerDensityMapFigureHeight 120
par Scenario.visualizer.canvasVisualizer.mediumVisualizer powerDensityMapPixmapWidth 200
par Scenario.visualizer.canvasVisualizer.mediumVisualizer powerDensityMapPixmapHeight 120
par Scenario.visualizer.canvasVisualizer.mediumVisualizer powerDensityMapZ 0
par Scenario.visualizer.canvasVisualizer.mediumVisualizer powerDensityMapFigureXTickCount 3
par Scenario.visualizer.canvasVisualizer.mediumVisualizer powerDensityMapFigureYTickCount 3
par Scenario.visualizer.canvasVisualizer.mediumVisualizer displaySpectrums false
par Scenario.visualizer.canvasVisualizer.mediumVisualizer spectrumMode "\"auto\""
attr enum total,signal,auto
par Scenario.visualizer.canvasVisualizer.mediumVisualizer spectrumFigureWidth 200
par Scenario.visualizer.canvasVisualizer.mediumVisualizer spectrumFigureHeight 120
par Scenario.visualizer.canvasVisualizer.mediumVisualizer spectrumFigureXTickCount 3
par Scenario.visualizer.canvasVisualizer.mediumVisualizer spectrumFigureYTickCount 5
par Scenario.visualizer.canvasVisualizer.mediumVisualizer spectrumFigureInterpolationSize 5
par Scenario.visualizer.canvasVisualizer.mediumVisualizer spectrumPlacementHint "\"bottomCenter\""
par Scenario.visualizer.canvasVisualizer.mediumVisualizer spectrumPlacementPriority -1
par Scenario.visualizer.canvasVisualizer.mediumVisualizer displaySpectrograms false
par Scenario.visualizer.canvasVisualizer.mediumVisualizer spectrogramMode "\"auto\""
attr enum total,signal,auto
par Scenario.visualizer.canvasVisualizer.mediumVisualizer spectrogramPixelMode "\"mean\""
attr enum sample,partition,mean
par Scenario.visualizer.canvasVisualizer.mediumVisualizer spectrogramFigureWidth 200
par Scenario.visualizer.canvasVisualizer.mediumVisualizer spectrogramFigureHeight 120
par Scenario.visualizer.canvasVisualizer.mediumVisualizer spectrogramPixmapWidth 200
par Scenario.visualizer.canvasVisualizer.mediumVisualizer spectrogramPixmapHeight 120
par Scenario.visualizer.canvasVisualizer.mediumVisualizer spectrogramFigureXTickCount 3
par Scenario.visualizer.canvasVisualizer.mediumVisualizer spectrogramFigureYTickCount 5
par Scenario.visualizer.canvasVisualizer.mediumVisualizer spectrogramPlacementHint "\"bottomCenter\""
par Scenario.visualizer.canvasVisualizer.mediumVisualizer spectrogramPlacementPriority -1
par Scenario.visualizer.canvasVisualizer.mediumVisualizer zIndex 0
par Scenario.visualizer.canvasVisualizer.mediumVisualizer signalShape "\"ring\""
attr enum ring,sphere
par Scenario.visualizer.canvasVisualizer.mediumVisualizer signalOpacity 0.5
par Scenario.visualizer.canvasVisualizer.mediumVisualizer signalRingCount 20
par Scenario.visualizer.canvasVisualizer.mediumVisualizer signalRingSize 50m
attr unit m
par Scenario.visualizer.canvasVisualizer.mediumVisualizer signalFadingDistance 50m
attr unit m
par Scenario.visualizer.canvasVisualizer.mediumVisualizer signalFadingFactor 1.2
par Scenario.visualizer.canvasVisualizer.mediumVisualizer signalWaveCount 20
par Scenario.visualizer.canvasVisualizer.mediumVisualizer signalWaveLength 50m
attr unit m
par Scenario.visualizer.canvasVisualizer.mediumVisualizer signalWaveWidth 10m
attr unit m
par Scenario.visualizer.canvasVisualizer.mediumVisualizer signalWaveFadingAnimationSpeedFactor 1
par Scenario.visualizer.canvasVisualizer.mediumVisualizer displayCommunicationHeat false
par Scenario.visualizer.canvasVisualizer.obstacleLossVisualizer typename "\"inet.visualizer.canvas.physicallayer.TracingObstacleLossCanvasVisualizer\""
par Scenario.visualizer.canvasVisualizer.obstacleLossVisualizer visualizationTargetModule "\"^.^.^\""
par Scenario.visualizer.canvasVisualizer.obstacleLossVisualizer visualizationSubjectModule "\"^.^.^\""
par Scenario.visualizer.canvasVisualizer.obstacleLossVisualizer tags "\"\""
par Scenario.visualizer.canvasVisualizer.obstacleLossVisualizer displayIntersections false
par Scenario.visualizer.canvasVisualizer.obstacleLossVisualizer intersectionLineColor "\"red\""
par Scenario.visualizer.canvasVisualizer.obstacleLossVisualizer intersectionLineStyle "\"solid\""
par Scenario.visualizer.canvasVisualizer.obstacleLossVisualizer intersectionLineWidth 1
par Scenario.visualizer.canvasVisualizer.obstacleLossVisualizer displayFaceNormalVectors false
par Scenario.visualizer.canvasVisualizer.obstacleLossVisualizer faceNormalLineColor "\"grey\""
par Scenario.visualizer.canvasVisualizer.obstacleLossVisualizer faceNormalLineStyle "\"solid\""
par Scenario.visualizer.canvasVisualizer.obstacleLossVisualizer faceNormalLineWidth 1
par Scenario.visualizer.canvasVisualizer.obstacleLossVisualizer fadeOutMode "\"realTime\""
attr enum realTime,animationTime,simulationTime
par Scenario.visualizer.canvasVisualizer.obstacleLossVisualizer fadeOutTime 1s
attr unit s
par Scenario.visualizer.canvasVisualizer.obstacleLossVisualizer fadeOutAnimationSpeed 0
par Scenario.visualizer.canvasVisualizer.obstacleLossVisualizer zIndex 0
par Scenario.visualizer.canvasVisualizer.packetDropVisualizer typename "\"inet.visualizer.canvas.common.PacketDropCanvasVisualizer\""
par Scenario.visualizer.canvasVisualizer.packetDropVisualizer visualizationTargetModule "\"^.^.^\""
par Scenario.visualizer.canvasVisualizer.packetDropVisualizer visualizationSubjectModule "\"^.^.^\""
par Scenario.visualizer.canvasVisualizer.packetDropVisualizer tags "\"\""
par Scenario.visualizer.canvasVisualizer.packetDropVisualizer displayPacketDrops false
par Scenario.visualizer.canvasVisualizer.packetDropVisualizer nodeFilter "\"*\""
attr mutable ""
par Scenario.visualizer.canvasVisualizer.packetDropVisualizer interfaceFilter "\"*\""
attr mutable ""
par Scenario.visualizer.canvasVisualizer.packetDropVisualizer packetFilter "\"*\""
attr mutable ""
par Scenario.visualizer.canvasVisualizer.packetDropVisualizer packetDataFilter "\"*\""
attr mutable ""
par Scenario.visualizer.canvasVisualizer.packetDropVisualizer detailsFilter "\"*\""
attr mutable ""
par Scenario.visualizer.canvasVisualizer.packetDropVisualizer icon "\"msg/packet_s\""
par Scenario.visualizer.canvasVisualizer.packetDropVisualizer iconTintAmount 1
par Scenario.visualizer.canvasVisualizer.packetDropVisualizer iconTintColor "\"dark\""
par Scenario.visualizer.canvasVisualizer.packetDropVisualizer labelFormat "\"%n\""
attr mutable ""
par Scenario.visualizer.canvasVisualizer.packetDropVisualizer labelFont "\"<default>\""
par Scenario.visualizer.canvasVisualizer.packetDropVisualizer labelColor "\"black\""
par Scenario.visualizer.canvasVisualizer.packetDropVisualizer fadeOutMode "\"realTime\""
attr enum realTime,animationTime,simulationTime
par Scenario.visualizer.canvasVisualizer.packetDropVisualizer fadeOutTime 1s
attr unit s
par Scenario.visualizer.canvasVisualizer.packetDropVisualizer fadeOutAnimationSpeed 0
par Scenario.visualizer.canvasVisualizer.packetDropVisualizer zIndex 10
par Scenario.visualizer.canvasVisualizer.packetDropVisualizer dx 32
par Scenario.visualizer.canvasVisualizer.packetDropVisualizer dy 64
par Scenario.visualizer.canvasVisualizer.packetFlowVisualizer typename "\"inet.visualizer.canvas.flow.PacketFlowCanvasVisualizer\""
par Scenario.visualizer.canvasVisualizer.packetFlowVisualizer visualizationTargetModule "\"^.^.^\""
par Scenario.visualizer.canvasVisualizer.packetFlowVisualizer visualizationSubjectModule "\"^.^.^\""
par Scenario.visualizer.canvasVisualizer.packetFlowVisualizer tags "\"\""
par Scenario.visualizer.canvasVisualizer.packetFlowVisualizer displayRoutes false
par Scenario.visualizer.canvasVisualizer.packetFlowVisualizer startPathSignal "\"packetFlowStarted\""
par Scenario.visualizer.canvasVisualizer.packetFlowVisualizer extendPathSignal "\"packetReceivedFromLower\""
par Scenario.visualizer.canvasVisualizer.packetFlowVisualizer endPathSignal "\"packetFlowEnded\""
par Scenario.visualizer.canvasVisualizer.packetFlowVisualizer nodeFilter "\"*\""
attr mutable ""
par Scenario.visualizer.canvasVisualizer.packetFlowVisualizer packetFilter "\"*\""
attr mutable ""
par Scenario.visualizer.canvasVisualizer.packetFlowVisualizer packetDataFilter "\"*\""
attr mutable ""
par Scenario.visualizer.canvasVisualizer.packetFlowVisualizer lineColor "\"dark\""
attr enum light,dark
par Scenario.visualizer.canvasVisualizer.packetFlowVisualizer lineStyle "\"dashed\""
par Scenario.visualizer.canvasVisualizer.packetFlowVisualizer lineWidth 3
par Scenario.visualizer.canvasVisualizer.packetFlowVisualizer lineSmooth false
par Scenario.visualizer.canvasVisualizer.packetFlowVisualizer lineShift 16
par Scenario.visualizer.canvasVisualizer.packetFlowVisualizer lineShiftMode "\"normal\""
par Scenario.visualizer.canvasVisualizer.packetFlowVisualizer lineContactSpacing 3
par Scenario.visualizer.canvasVisualizer.packetFlowVisualizer lineContactMode "\"rectangular\""
attr enum circular,rectangular
par Scenario.visualizer.canvasVisualizer.packetFlowVisualizer labelFormat "\"%L %p pk (%l)\""
par Scenario.visualizer.canvasVisualizer.packetFlowVisualizer labelFont "\"<default>, 8px\""
par Scenario.visualizer.canvasVisualizer.packetFlowVisualizer labelColor "\"\""
par Scenario.visualizer.canvasVisualizer.packetFlowVisualizer fadeOutMode "\"realTime\""
attr enum realTime,animationTime,simulationTime
par Scenario.visualizer.canvasVisualizer.packetFlowVisualizer fadeOutTime 0s
attr unit s
par Scenario.visualizer.canvasVisualizer.packetFlowVisualizer fadeOutAnimationSpeed 0
par Scenario.visualizer.canvasVisualizer.packetFlowVisualizer zIndex 4
par Scenario.visualizer.canvasVisualizer.queueVisualizer typename "\"inet.visualizer.canvas.common.QueueCanvasVisualizer\""
par Scenario.visualizer.canvasVisualizer.queueVisualizer visualizationTargetModule "\"^.^.^\""
par Scenario.visualizer.canvasVisualizer.queueVisualizer visualizationSubjectModule "\"^.^.^\""
par Scenario.visualizer.canvasVisualizer.queueVisualizer tags "\"\""
par Scenario.visualizer.canvasVisualizer.queueVisualizer networkNodeVisualizerModule "\"^.networkNodeVisualizer\""
par Scenario.visualizer.canvasVisualizer.queueVisualizer displayQueues false
par Scenario.visualizer.canvasVisualizer.queueVisualizer queueFilter "\"**\""
par Scenario.visualizer.canvasVisualizer.queueVisualizer color "\"blue\""
par Scenario.visualizer.canvasVisualizer.queueVisualizer width 8
par Scenario.visualizer.canvasVisualizer.queueVisualizer height 24
par Scenario.visualizer.canvasVisualizer.queueVisualizer spacing 2
par Scenario.visualizer.canvasVisualizer.queueVisualizer placementHint "\"right\""
par Scenario.visualizer.canvasVisualizer.queueVisualizer placementPriority 0
par Scenario.visualizer.canvasVisualizer.queueVisualizer zIndex 10
par Scenario.visualizer.canvasVisualizer.radioVisualizer typename "\"inet.visualizer.canvas.physicallayer.RadioCanvasVisualizer\""
par Scenario.visualizer.canvasVisualizer.radioVisualizer visualizationTargetModule "\"^.^.^\""
par Scenario.visualizer.canvasVisualizer.radioVisualizer visualizationSubjectModule "\"^.^.^\""
par Scenario.visualizer.canvasVisualizer.radioVisualizer tags "\"\""
par Scenario.visualizer.canvasVisualizer.radioVisualizer networkNodeVisualizerModule "\"^.networkNodeVisualizer\""
par Scenario.visualizer.canvasVisualizer.radioVisualizer displayRadios false
par Scenario.visualizer.canvasVisualizer.radioVisualizer displayRadioMode true
par Scenario.visualizer.canvasVisualizer.radioVisualizer displayReceptionState true
par Scenario.visualizer.canvasVisualizer.radioVisualizer displayTransmissionState true
par Scenario.visualizer.canvasVisualizer.radioVisualizer displayAntennaLobes false
par Scenario.visualizer.canvasVisualizer.radioVisualizer radioFilter "\"**\""
attr mutable ""
par Scenario.visualizer.canvasVisualizer.radioVisualizer radioModeImages "\"block/process_vs block/timer_vs block/wrx_vs block/wtx_vs block/wrxtx_vs block/cogwheel_vs\""
par Scenario.visualizer.canvasVisualizer.radioVisualizer receptionStateImages "\"- - misc/receiving misc/receiving\""
par Scenario.visualizer.canvasVisualizer.radioVisualizer transmissionStateImages "\"- - misc/transmitting\""
par Scenario.visualizer.canvasVisualizer.radioVisualizer width 16
par Scenario.visualizer.canvasVisualizer.radioVisualizer height 16
par Scenario.visualizer.canvasVisualizer.radioVisualizer placementHint "\"bottomRight\""
par Scenario.visualizer.canvasVisualizer.radioVisualizer placementPriority 0
par Scenario.visualizer.canvasVisualizer.radioVisualizer antennaLobeNormalize false
par Scenario.visualizer.canvasVisualizer.radioVisualizer antennaLobeRelativeLabels false
par Scenario.visualizer.canvasVisualizer.radioVisualizer antennaLobePlaneGlobal true
par Scenario.visualizer.canvasVisualizer.radioVisualizer antennaLobePlane "\"view\""
attr enum view,xy,xz,yz
par Scenario.visualizer.canvasVisualizer.radioVisualizer antennaLobeMode "\"logarithmic\""
attr enum logarithmic,linear
par Scenario.visualizer.canvasVisualizer.radioVisualizer antennaLobeLogarithmicBase 10
par Scenario.visualizer.canvasVisualizer.radioVisualizer antennaLobeLogarithmicScale 100
par Scenario.visualizer.canvasVisualizer.radioVisualizer antennaLobeRadius 100
par Scenario.visualizer.canvasVisualizer.radioVisualizer antennaLobeStep 10deg
attr unit deg
par Scenario.visualizer.canvasVisualizer.radioVisualizer antennaLobeOpacity 0.25
par Scenario.visualizer.canvasVisualizer.radioVisualizer antennaLobeLineSmooth true
par Scenario.visualizer.canvasVisualizer.radioVisualizer antennaLobeLineColor "\"black\""
par Scenario.visualizer.canvasVisualizer.radioVisualizer antennaLobeLineStyle "\"solid\""
par Scenario.visualizer.canvasVisualizer.radioVisualizer antennaLobeLineWidth 1
par Scenario.visualizer.canvasVisualizer.radioVisualizer antennaLobeFillColor "\"white\""
par Scenario.visualizer.canvasVisualizer.radioVisualizer zIndex 10
par Scenario.visualizer.canvasVisualizer.physicalLinkVisualizer typename "\"inet.visualizer.canvas.physicallayer.PhysicalLinkCanvasVisualizer\""
par Scenario.visualizer.canvasVisualizer.physicalLinkVisualizer visualizationTargetModule "\"^.^.^\""
par Scenario.visualizer.canvasVisualizer.physicalLinkVisualizer visualizationSubjectModule "\"^.^.^\""
par Scenario.visualizer.canvasVisualizer.physicalLinkVisualizer tags "\"\""
par Scenario.visualizer.canvasVisualizer.physicalLinkVisualizer displayLinks false
par Scenario.visualizer.canvasVisualizer.physicalLinkVisualizer activityLevel "\"service\""
attr enum service,peer,protocol
par Scenario.visualizer.canvasVisualizer.physicalLinkVisualizer nodeFilter "\"*\""
attr mutable ""
par Scenario.visualizer.canvasVisualizer.physicalLinkVisualizer interfaceFilter "\"*\""
attr mutable ""
par Scenario.visualizer.canvasVisualizer.physicalLinkVisualizer packetFilter "\"*\""
attr mutable ""
par Scenario.visualizer.canvasVisualizer.physicalLinkVisualizer packetDataFilter "\"*\""
attr mutable ""
par Scenario.visualizer.canvasVisualizer.physicalLinkVisualizer lineColor "\"olive\""
par Scenario.visualizer.canvasVisualizer.physicalLinkVisualizer lineStyle "\"dotted\""
par Scenario.visualizer.canvasVisualizer.physicalLinkVisualizer lineWidth 3
par Scenario.visualizer.canvasVisualizer.physicalLinkVisualizer lineShift 16
par Scenario.visualizer.canvasVisualizer.physicalLinkVisualizer lineShiftMode "\"normal\""
par Scenario.visualizer.canvasVisualizer.physicalLinkVisualizer lineContactSpacing 3
par Scenario.visualizer.canvasVisualizer.physicalLinkVisualizer lineContactMode "\"rectangular\""
attr enum circular,rectangular
par Scenario.visualizer.canvasVisualizer.physicalLinkVisualizer labelFormat "\"%n\""
par Scenario.visualizer.canvasVisualizer.physicalLinkVisualizer labelFont "\"<default>, 8px\""
par Scenario.visualizer.canvasVisualizer.physicalLinkVisualizer labelColor "\"olive\""
par Scenario.visualizer.canvasVisualizer.physicalLinkVisualizer fadeOutMode "\"realTime\""
attr enum realTime,animationTime,simulationTime
par Scenario.visualizer.canvasVisualizer.physicalLinkVisualizer fadeOutTime 1s
attr unit s
par Scenario.visualizer.canvasVisualizer.physicalLinkVisualizer fadeOutAnimationSpeed 0
par Scenario.visualizer.canvasVisualizer.physicalLinkVisualizer holdAnimationTime 0s
attr unit s
par Scenario.visualizer.canvasVisualizer.physicalLinkVisualizer zIndex 1
par Scenario.visualizer.canvasVisualizer.interfaceTableVisualizer typename "\"inet.visualizer.canvas.linklayer.InterfaceTableCanvasVisualizer\""
par Scenario.visualizer.canvasVisualizer.interfaceTableVisualizer visualizationTargetModule "\"^.^.^\""
par Scenario.visualizer.canvasVisualizer.interfaceTableVisualizer visualizationSubjectModule "\"^.^.^\""
par Scenario.visualizer.canvasVisualizer.interfaceTableVisualizer tags "\"\""
par Scenario.visualizer.canvasVisualizer.interfaceTableVisualizer networkNodeVisualizerModule "\"^.networkNodeVisualizer\""
par Scenario.visualizer.canvasVisualizer.interfaceTableVisualizer displayInterfaceTables false
par Scenario.visualizer.canvasVisualizer.interfaceTableVisualizer displayWiredInterfacesAtConnections true
par Scenario.visualizer.canvasVisualizer.interfaceTableVisualizer displayBackground false
par Scenario.visualizer.canvasVisualizer.interfaceTableVisualizer nodeFilter "\"*\""
attr mutable ""
par Scenario.visualizer.canvasVisualizer.interfaceTableVisualizer interfaceFilter "\"not(lo*)\""
attr mutable ""
par Scenario.visualizer.canvasVisualizer.interfaceTableVisualizer format "\"%N %\\\\%a/%l\""
attr mutable ""
par Scenario.visualizer.canvasVisualizer.interfaceTableVisualizer placementHint "\"top\""
par Scenario.visualizer.canvasVisualizer.interfaceTableVisualizer placementPriority 0
par Scenario.visualizer.canvasVisualizer.interfaceTableVisualizer font "\"<default>\""
par Scenario.visualizer.canvasVisualizer.interfaceTableVisualizer textColor "\"#005030\""
par Scenario.visualizer.canvasVisualizer.interfaceTableVisualizer backgroundColor "\"white\""
par Scenario.visualizer.canvasVisualizer.interfaceTableVisualizer opacity 1
par Scenario.visualizer.canvasVisualizer.interfaceTableVisualizer zIndex 10
par Scenario.visualizer.canvasVisualizer.dataLinkVisualizer typename "\"inet.visualizer.canvas.linklayer.DataLinkCanvasVisualizer\""
par Scenario.visualizer.canvasVisualizer.dataLinkVisualizer visualizationTargetModule "\"^.^.^\""
par Scenario.visualizer.canvasVisualizer.dataLinkVisualizer visualizationSubjectModule "\"^.^.^\""
par Scenario.visualizer.canvasVisualizer.dataLinkVisualizer tags "\"\""
par Scenario.visualizer.canvasVisualizer.dataLinkVisualizer displayLinks false
par Scenario.visualizer.canvasVisualizer.dataLinkVisualizer activityLevel "\"service\""
attr enum service,peer,protocol
par Scenario.visualizer.canvasVisualizer.dataLinkVisualizer nodeFilter "\"*\""
attr mutable ""
par Scenario.visualizer.canvasVisualizer.dataLinkVisualizer interfaceFilter "\"*\""
attr mutable ""
par Scenario.visualizer.canvasVisualizer.dataLinkVisualizer packetFilter "\"*\""
attr mutable ""
par Scenario.visualizer.canvasVisualizer.dataLinkVisualizer packetDataFilter "\"*\""
attr mutable ""
par Scenario.visualizer.canvasVisualizer.dataLinkVisualizer lineColor "\"darkcyan\""
par Scenario.visualizer.canvasVisualizer.dataLinkVisualizer lineStyle "\"solid\""
par Scenario.visualizer.canvasVisualizer.dataLinkVisualizer lineWidth 3
par Scenario.visualizer.canvasVisualizer.dataLinkVisualizer lineShift 16
par Scenario.visualizer.canvasVisualizer.dataLinkVisualizer lineShiftMode "\"normal\""
par Scenario.visualizer.canvasVisualizer.dataLinkVisualizer lineContactSpacing 3
par Scenario.visualizer.canvasVisualizer.dataLinkVisualizer lineContactMode "\"rectangular\""
attr enum circular,rectangular
par Scenario.visualizer.canvasVisualizer.dataLinkVisualizer labelFormat "\"%n\""
par Scenario.visualizer.canvasVisualizer.dataLinkVisualizer labelFont "\"<default>, 8px\""
par Scenario.visualizer.canvasVisualizer.dataLinkVisualizer labelColor "\"darkcyan\""
par Scenario.visualizer.canvasVisualizer.dataLinkVisualizer fadeOutMode "\"realTime\""
attr enum realTime,animationTime,simulationTime
par Scenario.visualizer.canvasVisualizer.dataLinkVisualizer fadeOutTime 1s
attr unit s
par Scenario.visualizer.canvasVisualizer.dataLinkVisualizer fadeOutAnimationSpeed 0
par Scenario.visualizer.canvasVisualizer.dataLinkVisualizer holdAnimationTime 0s
attr unit s
par Scenario.visualizer.canvasVisualizer.dataLinkVisualizer zIndex 2
par Scenario.visualizer.canvasVisualizer.linkBreakVisualizer typename "\"inet.visualizer.canvas.linklayer.LinkBreakCanvasVisualizer\""
par Scenario.visualizer.canvasVisualizer.linkBreakVisualizer visualizationTargetModule "\"^.^.^\""
par Scenario.visualizer.canvasVisualizer.linkBreakVisualizer visualizationSubjectModule "\"^.^.^\""
par Scenario.visualizer.canvasVisualizer.linkBreakVisualizer tags "\"\""
par Scenario.visualizer.canvasVisualizer.linkBreakVisualizer displayLinkBreaks false
par Scenario.visualizer.canvasVisualizer.linkBreakVisualizer nodeFilter "\"*\""
attr mutable ""
par Scenario.visualizer.canvasVisualizer.linkBreakVisualizer interfaceFilter "\"*\""
attr mutable ""
par Scenario.visualizer.canvasVisualizer.linkBreakVisualizer packetFilter "\"*\""
attr mutable ""
par Scenario.visualizer.canvasVisualizer.linkBreakVisualizer packetDataFilter "\"*\""
par Scenario.visualizer.canvasVisualizer.linkBreakVisualizer icon "\"status/stop\""
par Scenario.visualizer.canvasVisualizer.linkBreakVisualizer iconTintAmount 0
par Scenario.visualizer.canvasVisualizer.linkBreakVisualizer iconTintColor "\"\""
par Scenario.visualizer.canvasVisualizer.linkBreakVisualizer fadeOutMode "\"realTime\""
attr enum realTime,animationTime,simulationTime
par Scenario.visualizer.canvasVisualizer.linkBreakVisualizer fadeOutTime 1s
attr unit s
par Scenario.visualizer.canvasVisualizer.linkBreakVisualizer fadeOutAnimationSpeed 0
par Scenario.visualizer.canvasVisualizer.linkBreakVisualizer zIndex 2
par Scenario.visualizer.canvasVisualizer.ieee80211Visualizer typename "\"inet.visualizer.canvas.linklayer.Ieee80211CanvasVisualizer\""
par Scenario.visualizer.canvasVisualizer.ieee80211Visualizer visualizationTargetModule "\"^.^.^\""
par Scenario.visualizer.canvasVisualizer.ieee80211Visualizer visualizationSubjectModule "\"^.^.^\""
par Scenario.visualizer.canvasVisualizer.ieee80211Visualizer tags "\"\""
par Scenario.visualizer.canvasVisualizer.ieee80211Visualizer networkNodeVisualizerModule "\"^.networkNodeVisualizer\""
par Scenario.visualizer.canvasVisualizer.ieee80211Visualizer displayAssociations false
par Scenario.visualizer.canvasVisualizer.ieee80211Visualizer nodeFilter "\"*\""
attr mutable ""
par Scenario.visualizer.canvasVisualizer.ieee80211Visualizer interfaceFilter "\"*\""
attr mutable ""
par Scenario.visualizer.canvasVisualizer.ieee80211Visualizer minPower -85dBm
attr unit dBm
par Scenario.visualizer.canvasVisualizer.ieee80211Visualizer maxPower -50dBm
attr unit dBm
par Scenario.visualizer.canvasVisualizer.ieee80211Visualizer icons "\"misc/signal_power_0 misc/signal_power_1 misc/signal_power_2 misc/signal_power_3\""
par Scenario.visualizer.canvasVisualizer.ieee80211Visualizer iconColor "\"dark\""
attr enum light,dark
par Scenario.visualizer.canvasVisualizer.ieee80211Visualizer labelFont "\"<default>\""
par Scenario.visualizer.canvasVisualizer.ieee80211Visualizer labelColor "\"black\""
par Scenario.visualizer.canvasVisualizer.ieee80211Visualizer placementHint "\"top\""
par Scenario.visualizer.canvasVisualizer.ieee80211Visualizer placementPriority 0
par Scenario.visualizer.canvasVisualizer.ieee80211Visualizer zIndex 2
par Scenario.visualizer.canvasVisualizer.networkRouteVisualizer typename "\"inet.visualizer.canvas.networklayer.NetworkRouteCanvasVisualizer\""
par Scenario.visualizer.canvasVisualizer.networkRouteVisualizer visualizationTargetModule "\"^.^.^\""
par Scenario.visualizer.canvasVisualizer.networkRouteVisualizer visualizationSubjectModule "\"^.^.^\""
par Scenario.visualizer.canvasVisualizer.networkRouteVisualizer tags "\"\""
par Scenario.visualizer.canvasVisualizer.networkRouteVisualizer displayRoutes false
par Scenario.visualizer.canvasVisualizer.networkRouteVisualizer startPathSignal "\"packetReceivedFromUpper\""
par Scenario.visualizer.canvasVisualizer.networkRouteVisualizer extendPathSignal "\"packetReceivedFromLower\""
par Scenario.visualizer.canvasVisualizer.networkRouteVisualizer endPathSignal "\"packetSentToUpper\""
par Scenario.visualizer.canvasVisualizer.networkRouteVisualizer nodeFilter "\"*\""
attr mutable ""
par Scenario.visualizer.canvasVisualizer.networkRouteVisualizer packetFilter "\"*\""
attr mutable ""
par Scenario.visualizer.canvasVisualizer.networkRouteVisualizer packetDataFilter "\"*\""
attr mutable ""
par Scenario.visualizer.canvasVisualizer.networkRouteVisualizer lineColor "\"dark\""
attr enum light,dark
par Scenario.visualizer.canvasVisualizer.networkRouteVisualizer lineStyle "\"solid\""
par Scenario.visualizer.canvasVisualizer.networkRouteVisualizer lineWidth 3
par Scenario.visualizer.canvasVisualizer.networkRouteVisualizer lineSmooth false
par Scenario.visualizer.canvasVisualizer.networkRouteVisualizer lineShift 16
par Scenario.visualizer.canvasVisualizer.networkRouteVisualizer lineShiftMode "\"normal\""
par Scenario.visualizer.canvasVisualizer.networkRouteVisualizer lineContactSpacing 3
par Scenario.visualizer.canvasVisualizer.networkRouteVisualizer lineContactMode "\"rectangular\""
attr enum circular,rectangular
par Scenario.visualizer.canvasVisualizer.networkRouteVisualizer labelFormat "\"%n\""
par Scenario.visualizer.canvasVisualizer.networkRouteVisualizer labelFont "\"<default>, 8px\""
par Scenario.visualizer.canvasVisualizer.networkRouteVisualizer labelColor "\"\""
par Scenario.visualizer.canvasVisualizer.networkRouteVisualizer fadeOutMode "\"realTime\""
attr enum realTime,animationTime,simulationTime
par Scenario.visualizer.canvasVisualizer.networkRouteVisualizer fadeOutTime 1s
attr unit s
par Scenario.visualizer.canvasVisualizer.networkRouteVisualizer fadeOutAnimationSpeed 0
par Scenario.visualizer.canvasVisualizer.networkRouteVisualizer zIndex 3
par Scenario.visualizer.canvasVisualizer.routingTableVisualizer typename "\"inet.visualizer.canvas.networklayer.RoutingTableCanvasVisualizer\""
par Scenario.visualizer.canvasVisualizer.routingTableVisualizer visualizationTargetModule "\"^.^.^\""
par Scenario.visualizer.canvasVisualizer.routingTableVisualizer visualizationSubjectModule "\"^.^.^\""
par Scenario.visualizer.canvasVisualizer.routingTableVisualizer tags "\"\""
par Scenario.visualizer.canvasVisualizer.routingTableVisualizer displayRoutingTables false
par Scenario.visualizer.canvasVisualizer.routingTableVisualizer displayRoutesIndividually true
par Scenario.visualizer.canvasVisualizer.routingTableVisualizer displayLabels true
par Scenario.visualizer.canvasVisualizer.routingTableVisualizer destinationFilter "\"*\""
attr mutable ""
par Scenario.visualizer.canvasVisualizer.routingTableVisualizer nodeFilter "\"*\""
attr mutable ""
par Scenario.visualizer.canvasVisualizer.routingTableVisualizer lineColor "\"black\""
par Scenario.visualizer.canvasVisualizer.routingTableVisualizer lineStyle "\"solid\""
par Scenario.visualizer.canvasVisualizer.routingTableVisualizer lineWidth 2
par Scenario.visualizer.canvasVisualizer.routingTableVisualizer lineShift 16
par Scenario.visualizer.canvasVisualizer.routingTableVisualizer lineShiftMode "\"normal\""
par Scenario.visualizer.canvasVisualizer.routingTableVisualizer lineContactSpacing 3
par Scenario.visualizer.canvasVisualizer.routingTableVisualizer lineContactMode "\"rectangular\""
attr enum circular,rectangular
par Scenario.visualizer.canvasVisualizer.routingTableVisualizer labelFormat "\"%d/%m -> %g (%n)\""
attr mutable ""
par Scenario.visualizer.canvasVisualizer.routingTableVisualizer labelFont "\"<default>, 8px\""
par Scenario.visualizer.canvasVisualizer.routingTableVisualizer labelColor "\"black\""
par Scenario.visualizer.canvasVisualizer.routingTableVisualizer zIndex 0
par Scenario.visualizer.canvasVisualizer.transportRouteVisualizer typename "\"inet.visualizer.canvas.transportlayer.TransportRouteCanvasVisualizer\""
par Scenario.visualizer.canvasVisualizer.transportRouteVisualizer visualizationTargetModule "\"^.^.^\""
par Scenario.visualizer.canvasVisualizer.transportRouteVisualizer visualizationSubjectModule "\"^.^.^\""
par Scenario.visualizer.canvasVisualizer.transportRouteVisualizer tags "\"\""
par Scenario.visualizer.canvasVisualizer.transportRouteVisualizer displayRoutes false
par Scenario.visualizer.canvasVisualizer.transportRouteVisualizer startPathSignal "\"packetReceivedFromUpper\""
par Scenario.visualizer.canvasVisualizer.transportRouteVisualizer extendPathSignal "\"packetReceivedFromLower\""
par Scenario.visualizer.canvasVisualizer.transportRouteVisualizer endPathSignal "\"packetSentToUpper\""
par Scenario.visualizer.canvasVisualizer.transportRouteVisualizer nodeFilter "\"*\""
attr mutable ""
par Scenario.visualizer.canvasVisualizer.transportRouteVisualizer packetFilter "\"*\""
attr mutable ""
par Scenario.visualizer.canvasVisualizer.transportRouteVisualizer packetDataFilter "\"*\""
attr mutable ""
par Scenario.visualizer.canvasVisualizer.transportRouteVisualizer lineColor "\"dark\""
attr enum light,dark
par Scenario.visualizer.canvasVisualizer.transportRouteVisualizer lineStyle "\"solid\""
par Scenario.visualizer.canvasVisualizer.transportRouteVisualizer lineWidth 3
par Scenario.visualizer.canvasVisualizer.transportRouteVisualizer lineSmooth false
par Scenario.visualizer.canvasVisualizer.transportRouteVisualizer lineShift 16
par Scenario.visualizer.canvasVisualizer.transportRouteVisualizer lineShiftMode "\"normal\""
par Scenario.visualizer.canvasVisualizer.transportRouteVisualizer lineContactSpacing 3
par Scenario.visualizer.canvasVisualizer.transportRouteVisualizer lineContactMode "\"rectangular\""
attr enum circular,rectangular
par Scenario.visualizer.canvasVisualizer.transportRouteVisualizer labelFormat "\"%n\""
par Scenario.visualizer.canvasVisualizer.transportRouteVisualizer labelFont "\"<default>, 8px\""
par Scenario.visualizer.canvasVisualizer.transportRouteVisualizer labelColor "\"\""
par Scenario.visualizer.canvasVisualizer.transportRouteVisualizer fadeOutMode "\"realTime\""
attr enum realTime,animationTime,simulationTime
par Scenario.visualizer.canvasVisualizer.transportRouteVisualizer fadeOutTime 1s
attr unit s
par Scenario.visualizer.canvasVisualizer.transportRouteVisualizer fadeOutAnimationSpeed 0
par Scenario.visualizer.canvasVisualizer.transportRouteVisualizer zIndex 4
par Scenario.visualizer.canvasVisualizer.transportConnectionVisualizer typename "\"inet.visualizer.canvas.transportlayer.TransportConnectionCanvasVisualizer\""
par Scenario.visualizer.canvasVisualizer.transportConnectionVisualizer visualizationTargetModule "\"^.^.^\""
par Scenario.visualizer.canvasVisualizer.transportConnectionVisualizer visualizationSubjectModule "\"^.^.^\""
par Scenario.visualizer.canvasVisualizer.transportConnectionVisualizer tags "\"\""
par Scenario.visualizer.canvasVisualizer.transportConnectionVisualizer networkNodeVisualizerModule "\"^.networkNodeVisualizer\""
par Scenario.visualizer.canvasVisualizer.transportConnectionVisualizer displayTransportConnections false
par Scenario.visualizer.canvasVisualizer.transportConnectionVisualizer sourceNodeFilter "\"*\""
attr mutable ""
par Scenario.visualizer.canvasVisualizer.transportConnectionVisualizer sourcePortFilter "\"*\""
attr mutable ""
par Scenario.visualizer.canvasVisualizer.transportConnectionVisualizer destinationNodeFilter "\"*\""
attr mutable ""
par Scenario.visualizer.canvasVisualizer.transportConnectionVisualizer destinationPortFilter "\"*\""
attr mutable ""
par Scenario.visualizer.canvasVisualizer.transportConnectionVisualizer icon "\"misc/marker_s\""
par Scenario.visualizer.canvasVisualizer.transportConnectionVisualizer iconColor "\"dark\""
attr enum light,dark
par Scenario.visualizer.canvasVisualizer.transportConnectionVisualizer labelFont "\"<default>\""
par Scenario.visualizer.canvasVisualizer.transportConnectionVisualizer labelColor "\"black\""
par Scenario.visualizer.canvasVisualizer.transportConnectionVisualizer placementHint "\"top\""
par Scenario.visualizer.canvasVisualizer.transportConnectionVisualizer placementPriority 0
par Scenario.visualizer.canvasVisualizer.transportConnectionVisualizer zIndex 4
par Scenario.visualizer.canvasVisualizer typename "\"inet.visualizer.canvas.integrated.IntegratedCanvasVisualizer\""
par Scenario.visualizer typename "\"inet.visualizer.common.IntegratedVisualizer\""
par Scenario.physicalEnvironment typename "\"inet.environment.common.PhysicalEnvironment\""
par Scenario.physicalEnvironment coordinateSystemModule "\"\""
par Scenario.physicalEnvironment temperature 293K
attr unit K
par Scenario.physicalEnvironment spaceMinX "nan m"
attr unit m
par Scenario.physicalEnvironment spaceMinY "nan m"
attr unit m
par Scenario.physicalEnvironment spaceMinZ "nan m"
attr unit m
par Scenario.physicalEnvironment spaceMaxX "nan m"
attr unit m
par Scenario.physicalEnvironment spaceMaxY "nan m"
attr unit m
par Scenario.physicalEnvironment spaceMaxZ "nan m"
attr unit m
par Scenario.physicalEnvironment config "<environment>...</environment> at D:/NCKH/VANET/demo/thuyloi_aodv/simulations/veins_inet/\\obstacles.xml:34"
par Scenario.roadsCanvasVisualizer typename "\"org.car2x.veins.visualizer.roads.RoadsCanvasVisualizer\""
par Scenario.roadsCanvasVisualizer enabled true
par Scenario.roadsCanvasVisualizer lineZIndex -1
par Scenario.roadsCanvasVisualizer lineColor "\"firebrick4\""
par Scenario.roadsCanvasVisualizer lineWidth 1
par Scenario.roadsCanvasVisualizer lineWidthZoom false
par Scenario.node[0].radioIn[0].channel typename "\"ned.IdealChannel\""
par Scenario.node[0].mobility typename "\"thuyloi_aodv.veins_inet.VeinsInetMobility\""
par Scenario.node[0].mobility subjectModule "\"^\""
par Scenario.node[0].mobility coordinateSystemModule "\"\""
par Scenario.node[0].mobility displayStringTextFormat "\"p: %p\\nv: %v\""
attr mutable ""
par Scenario.node[0].mobility updateDisplayString true
par Scenario.node[0].mobility constraintAreaMinX "-inf m"
attr unit m
par Scenario.node[0].mobility constraintAreaMinY "-inf m"
attr unit m
par Scenario.node[0].mobility constraintAreaMinZ "-inf m"
attr unit m
par Scenario.node[0].mobility constraintAreaMaxX "inf m"
attr unit m
par Scenario.node[0].mobility constraintAreaMaxY "inf m"
attr unit m
par Scenario.node[0].mobility constraintAreaMaxZ "inf m"
attr unit m
par Scenario.node[0].mobility initFromDisplayString true
par Scenario.node[0].interfaceTable typename "\"inet.networklayer.common.InterfaceTable\""
par Scenario.node[0].interfaceTable displayAddresses false
par Scenario.node[0].li typename "\"inet.common.MessageDispatcher\""
par Scenario.node[0].li displayStringTextFormat "\"processed %p pk (%l)\""
par Scenario.node[0].lo[0].upperLayerIn.channel typename "\"ned.IdealChannel\""
par Scenario.node[0].lo[0].lo.upperLayerOut.channel typename "\"ned.IdealChannel\""
par Scenario.node[0].lo[0].lo typename "\"inet.linklayer.loopback.Loopback\""
par Scenario.node[0].lo[0].lo interfaceTableModule "\"Scenario.node[0].interfaceTable\""
par Scenario.node[0].lo[0].lo mtu 4470B
attr unit B
scalar Scenario.node[0].lo[0].lo rcvdPkFromHl:count 2
attr interpolationmode none
attr source packetReceivedFromUpper
attr title "packets received from higher layer, count"
scalar Scenario.node[0].lo[0].lo rcvdPkFromHl:sum(packetBytes) 256
attr interpolationmode none
attr source packetReceivedFromUpper
attr title "packets received from higher layer, sum(packetBytes)"
scalar Scenario.node[0].lo[0].lo passedUpPk:count 2
attr interpolationmode none
attr source packetSentToUpper
attr title "packets passed to higher layer, count"
scalar Scenario.node[0].lo[0].lo passedUpPk:sum(packetBytes) 256
attr interpolationmode none
attr source packetSentToUpper
attr title "packets passed to higher layer, sum(packetBytes)"
par Scenario.node[0].lo[0] typename "\"inet.linklayer.loopback.LoopbackInterface\""
par Scenario.node[0].lo[0] displayStringTextFormat "\"%a (%i)\\n%m\""
par Scenario.node[0].lo[0] recordPcap false
par Scenario.node[0].lo[0] numPcapRecorders 0
par Scenario.node[0].lo[0] interfaceTableModule "\"Scenario.node[0].interfaceTable\""
par Scenario.node[0].wlan[0].radioIn.channel typename "\"ned.IdealChannel\""
par Scenario.node[0].wlan[0].llc.upperLayerOut.channel typename "\"ned.IdealChannel\""
par Scenario.node[0].wlan[0].upperLayerIn.channel typename "\"ned.IdealChannel\""
par Scenario.node[0].wlan[0].mib typename "\"inet.linklayer.ieee80211.mib.Ieee80211Mib\""
par Scenario.node[0].wlan[0].llc typename "\"inet.linklayer.ieee80211.llc.Ieee80211LlcEpd\""
par Scenario.node[0].wlan[0].mgmt typename "\"inet.linklayer.ieee80211.mgmt.Ieee80211MgmtAdhoc\""
par Scenario.node[0].wlan[0].mgmt mibModule "\"Scenario.node[0].wlan[0].mib\""
par Scenario.node[0].wlan[0].mgmt macModule "\"Scenario.node[0].wlan[0].mac\""
par Scenario.node[0].wlan[0].mgmt interfaceTableModule "\"Scenario.node[0].interfaceTable\""
par Scenario.node[0].wlan[0].mac.dcf.channelAccess.pendingQueue typename "\"inet.linklayer.ieee80211.mac.queue.PendingQueue\""
par Scenario.node[0].wlan[0].mac.dcf.channelAccess.pendingQueue displayStringTextFormat "\"contains %p pk (%l) pushed %u\\npulled %o removed %r dropped %d\""
par Scenario.node[0].wlan[0].mac.dcf.channelAccess.pendingQueue packetCapacity 100
par Scenario.node[0].wlan[0].mac.dcf.channelAccess.pendingQueue dataCapacity -1b
attr unit b
par Scenario.node[0].wlan[0].mac.dcf.channelAccess.pendingQueue dropperClass "\"inet::queueing::PacketAtCollectionEndDropper\""
par Scenario.node[0].wlan[0].mac.dcf.channelAccess.pendingQueue comparatorClass "\"inet::ieee80211::MgmtOverDataComparator\""
par Scenario.node[0].wlan[0].mac.dcf.channelAccess.pendingQueue bufferModule "\"\""
scalar Scenario.node[0].wlan[0].mac.dcf.channelAccess.pendingQueue packetPulled:count 2
attr interpolationmode none
attr title "packet pulled, count"
scalar Scenario.node[0].wlan[0].mac.dcf.channelAccess.pendingQueue packetPulled:sum(packetBytes) 316
attr interpolationmode none
attr title "packet pulled, sum(packetBytes)"
statistic Scenario.node[0].wlan[0].mac.dcf.channelAccess.pendingQueue queueingTime:histogram
field count 2
field mean 0
field stddev 0
field min 0
field max 0
field sum 0
field sqrsum 0
attr interpolationmode none
attr source queueingTime(packetPulled)
attr title "queueing times, histogram"
attr unit s
bin	-inf	0
bin	-0.5	0
bin	-0.48	0
bin	-0.46	0
bin	-0.44	0
bin	-0.42	0
bin	-0.4	0
bin	-0.38	0
bin	-0.36	0
bin	-0.34	0
bin	-0.32	0
bin	-0.3	0
bin	-0.28	0
bin	-0.26	0
bin	-0.24	0
bin	-0.22	0
bin	-0.2	0
bin	-0.18	0
bin	-0.16	0
bin	-0.14	0
bin	-0.12	0
bin	-0.1	0
bin	-0.08	0
bin	-0.06	0
bin	-0.04	0
bin	-0.02	0
bin	0	2
bin	0.02	0
bin	0.04	0
bin	0.06	0
bin	0.08	0
bin	0.1	0
bin	0.12	0
bin	0.14	0
bin	0.16	0
bin	0.18	0
bin	0.2	0
bin	0.22	0
bin	0.24	0
bin	0.26	0
bin	0.28	0
bin	0.3	0
bin	0.32	0
bin	0.34	0
bin	0.36	0
bin	0.38	0
bin	0.4	0
bin	0.42	0
bin	0.44	0
bin	0.46	0
bin	0.48	0
bin	0.5	0
scalar Scenario.node[0].wlan[0].mac.dcf.channelAccess.pendingQueue queueLength:max 2
attr autoWarmupFilter false
attr interpolationmode sample-hold
attr source "warmup(count(packetPushed) - count(packetPulled) - count(packetRemoved) - count(packetDropped))"
attr title "queue length, max"
attr type int
scalar Scenario.node[0].wlan[0].mac.dcf.channelAccess.pendingQueue queueLength:timeavg 0
attr autoWarmupFilter false
attr interpolationmode sample-hold
attr source "warmup(count(packetPushed) - count(packetPulled) - count(packetRemoved) - count(packetDropped))"
attr title "queue length, timeavg"
attr type int
scalar Scenario.node[0].wlan[0].mac.dcf.channelAccess.pendingQueue packetPushed:count 2
attr interpolationmode none
attr title "packet pushed, count"
scalar Scenario.node[0].wlan[0].mac.dcf.channelAccess.pendingQueue packetPushed:sum(packetBytes) 316
attr interpolationmode none
attr title "packet pushed, sum(packetBytes)"
scalar Scenario.node[0].wlan[0].mac.dcf.channelAccess.pendingQueue packetDropQueueOverflow:count 0
attr interpolationmode none
attr source packetDropReasonIsQueueOverflow(packetDropped)
attr title "packet drops: queue overflow, count"
scalar Scenario.node[0].wlan[0].mac.dcf.channelAccess.pendingQueue packetDropQueueOverflow:sum(packetBytes) 0
attr interpolationmode none
attr source packetDropReasonIsQueueOverflow(packetDropped)
attr title "packet drops: queue overflow, sum(packetBytes)"
scalar Scenario.node[0].wlan[0].mac.dcf.channelAccess.pendingQueue packetRemoved:count 0
attr interpolationmode none
attr title "packets removed, count"
scalar Scenario.node[0].wlan[0].mac.dcf.channelAccess.pendingQueue packetRemoved:sum(packetBytes) 0
attr interpolationmode none
attr title "packets removed, sum(packetBytes)"
par Scenario.node[0].wlan[0].mac.dcf.channelAccess.inProgressFrames typename "\"inet.linklayer.ieee80211.mac.queue.InProgressFrames\""
par Scenario.node[0].wlan[0].mac.dcf.channelAccess.inProgressFrames pendingQueueModule "\"^.pendingQueue\""
par Scenario.node[0].wlan[0].mac.dcf.channelAccess.inProgressFrames originatorMacDataServiceModule "\"^.^.originatorMacDataService\""
par Scenario.node[0].wlan[0].mac.dcf.channelAccess.inProgressFrames ackHandlerModule "\"^.^.ackHandler\""
statistic Scenario.node[0].wlan[0].mac.dcf.channelAccess.inProgressFrames queueingTime:histogram
field count 1
field mean 0.000152
field stddev nan
field min 0.000152
field max 0.000152
field sum 0.000152
field sqrsum 2.3104e-08
attr interpolationmode none
attr source queueingTime(packetDequeued)
attr title "queueing times, histogram"
bin	-inf	0
bin	0	1
bin	0.01	0
bin	0.02	0
bin	0.03	0
bin	0.04	0
bin	0.05	0
bin	0.06	0
bin	0.07	0
bin	0.08	0
bin	0.09	0
bin	0.1	0
bin	0.11	0
bin	0.12	0
bin	0.13	0
bin	0.14	0
bin	0.15	0
bin	0.16	0
bin	0.17	0
bin	0.18	0
bin	0.19	0
bin	0.2	0
bin	0.21	0
bin	0.22	0
bin	0.23	0
bin	0.24	0
bin	0.25	0
bin	0.26	0
bin	0.27	0
bin	0.28	0
bin	0.29	0
bin	0.3	0
bin	0.31	0
bin	0.32	0
bin	0.33	0
bin	0.34	0
bin	0.35	0
bin	0.36	0
bin	0.37	0
bin	0.38	0
bin	0.39	0
bin	0.4	0
bin	0.41	0
bin	0.42	0
bin	0.43	0
bin	0.44	0
bin	0.45	0
bin	0.46	0
bin	0.47	0
bin	0.48	0
bin	0.49	0
bin	0.5	0
bin	0.51	0
scalar Scenario.node[0].wlan[0].mac.dcf.channelAccess.inProgressFrames queueLength:max 2
attr autoWarmupFilter false
attr interpolationmode sample-hold
attr source "warmup(count(packetEnqueued) - count(packetDequeued))"
attr title "queue length, max"
scalar Scenario.node[0].wlan[0].mac.dcf.channelAccess.inProgressFrames queueLength:timeavg 1.1142734132253
attr autoWarmupFilter false
attr interpolationmode sample-hold
attr source "warmup(count(packetEnqueued) - count(packetDequeued))"
attr title "queue length, timeavg"
par Scenario.node[0].wlan[0].mac.dcf.channelAccess.contention typename "\"inet.linklayer.ieee80211.mac.contention.Contention\""
par Scenario.node[0].wlan[0].mac.dcf.channelAccess.contention initialChannelBusy true
par Scenario.node[0].wlan[0].mac.dcf.channelAccess.contention backoffOptimization true
scalar Scenario.node[0].wlan[0].mac.dcf.channelAccess.contention stateChanged:count 32
attr enum IDLE,DEFER,IFS_AND_BACKOFF
attr interpolationmode none
attr title "contention state changed, count"
attr type enum
scalar Scenario.node[0].wlan[0].mac.dcf.channelAccess.contention channelAccessGranted:count 1
attr title "channel access granted, count"
par Scenario.node[0].wlan[0].mac.dcf.channelAccess typename "\"inet.linklayer.ieee80211.mac.channelaccess.Dcaf\""
par Scenario.node[0].wlan[0].mac.dcf.channelAccess difsn -1
par Scenario.node[0].wlan[0].mac.dcf.channelAccess cwMin -1
par Scenario.node[0].wlan[0].mac.dcf.channelAccess cwMax -1
par Scenario.node[0].wlan[0].mac.dcf.channelAccess rxModule "\"^.^.rx\""
scalar Scenario.node[0].wlan[0].mac.dcf.channelAccess channelOwnershipChanged:count 2
attr interpolationmode sample-hold
attr title "channel ownership, count"
par Scenario.node[0].wlan[0].mac.dcf.originatorMacDataService.fragmentationPolicy typename "\"inet.linklayer.ieee80211.mac.fragmentation.BasicFragmentationPolicy\""
par Scenario.node[0].wlan[0].mac.dcf.originatorMacDataService.fragmentationPolicy fragmentationThreshold 1500B
attr unit B
par Scenario.node[0].wlan[0].mac.dcf.originatorMacDataService typename "\"inet.linklayer.ieee80211.mac.originator.OriginatorMacDataService\""
scalar Scenario.node[0].wlan[0].mac.dcf.originatorMacDataService packetAggregated:count 0
attr title "packets aggregated, count"
scalar Scenario.node[0].wlan[0].mac.dcf.originatorMacDataService packetFragmented:count 0
attr title "packets fragmented, count"
par Scenario.node[0].wlan[0].mac.dcf.recipientMacDataService typename "\"inet.linklayer.ieee80211.mac.recipient.RecipientMacDataService\""
scalar Scenario.node[0].wlan[0].mac.dcf.recipientMacDataService packetDropDuplicateDetected:count 0
attr interpolationmode none
attr source packetDropReasonIsDuplicateDetected(packetDropped)
attr title "packet drops: duplicate detected, count"
scalar Scenario.node[0].wlan[0].mac.dcf.recipientMacDataService packetDropDuplicateDetected:sum(packetBytes) 0
attr interpolationmode none
attr source packetDropReasonIsDuplicateDetected(packetDropped)
attr title "packet drops: duplicate detected, sum(packetBytes)"
scalar Scenario.node[0].wlan[0].mac.dcf.recipientMacDataService packetDeaggregated:count 0
attr title "packets deaggregated, count"
scalar Scenario.node[0].wlan[0].mac.dcf.recipientMacDataService packetDefragmented:count 0
attr title "packets defragmented, count"
par Scenario.node[0].wlan[0].mac.dcf.rateSelection typename "\"inet.linklayer.ieee80211.mac.rateselection.RateSelection\""
par Scenario.node[0].wlan[0].mac.dcf.rateSelection rateControlModule "\"^.rateControl\""
par Scenario.node[0].wlan[0].mac.dcf.rateSelection multicastFrameBitrate -1bps
attr unit bps
par Scenario.node[0].wlan[0].mac.dcf.rateSelection responseAckFrameBitrate -1bps
attr unit bps
par Scenario.node[0].wlan[0].mac.dcf.rateSelection responseCtsFrameBitrate -1bps
attr unit bps
par Scenario.node[0].wlan[0].mac.dcf.rateSelection dataFrameBitrate -1bps
attr unit bps
par Scenario.node[0].wlan[0].mac.dcf.rateSelection dataFrameBandwidth "nan Hz"
attr unit Hz
par Scenario.node[0].wlan[0].mac.dcf.rateSelection dataFrameNumSpatialStreams -1
par Scenario.node[0].wlan[0].mac.dcf.rateSelection mgmtFrameBitrate -1bps
attr unit bps
par Scenario.node[0].wlan[0].mac.dcf.rateSelection controlFrameBitrate -1bps
attr unit bps
par Scenario.node[0].wlan[0].mac.dcf.recoveryProcedure typename "\"inet.linklayer.ieee80211.mac.originator.NonQosRecoveryProcedure\""
par Scenario.node[0].wlan[0].mac.dcf.recoveryProcedure cwCalculatorModule "\"^.channelAccess\""
par Scenario.node[0].wlan[0].mac.dcf.recoveryProcedure rtsPolicyModule "\"^.rtsPolicy\""
par Scenario.node[0].wlan[0].mac.dcf.recoveryProcedure shortRetryLimit 7
par Scenario.node[0].wlan[0].mac.dcf.recoveryProcedure longRetryLimit 4
scalar Scenario.node[0].wlan[0].mac.dcf.recoveryProcedure retryLimitReached:count 0
attr title "retry limit reached, count"
par Scenario.node[0].wlan[0].mac.dcf.originatorProtectionMechanism typename "\"inet.linklayer.ieee80211.mac.protectionmechanism.OriginatorProtectionMechanism\""
par Scenario.node[0].wlan[0].mac.dcf.originatorProtectionMechanism rateSelectionModule "\"^.rateSelection\""
par Scenario.node[0].wlan[0].mac.dcf.ackHandler typename "\"inet.linklayer.ieee80211.mac.originator.AckHandler\""
par Scenario.node[0].wlan[0].mac.dcf.originatorAckPolicy typename "\"inet.linklayer.ieee80211.mac.originator.OriginatorAckPolicy\""
par Scenario.node[0].wlan[0].mac.dcf.originatorAckPolicy rateSelectionModule "\"^.rateSelection\""
par Scenario.node[0].wlan[0].mac.dcf.originatorAckPolicy ackTimeout -1s
attr unit s
par Scenario.node[0].wlan[0].mac.dcf.recipientAckPolicy typename "\"inet.linklayer.ieee80211.mac.recipient.RecipientAckPolicy\""
par Scenario.node[0].wlan[0].mac.dcf.recipientAckPolicy rateSelectionModule "\"^.rateSelection\""
par Scenario.node[0].wlan[0].mac.dcf.rtsPolicy typename "\"inet.linklayer.ieee80211.mac.originator.RtsPolicy\""
par Scenario.node[0].wlan[0].mac.dcf.rtsPolicy rateSelectionModule "\"^.rateSelection\""
par Scenario.node[0].wlan[0].mac.dcf.rtsPolicy ctsTimeout -1s
attr unit s
par Scenario.node[0].wlan[0].mac.dcf.rtsPolicy rtsThreshold 2346B
attr unit B
par Scenario.node[0].wlan[0].mac.dcf.ctsPolicy typename "\"inet.linklayer.ieee80211.mac.recipient.CtsPolicy\""
par Scenario.node[0].wlan[0].mac.dcf.ctsPolicy rxModule "\"^.^.rx\""
par Scenario.node[0].wlan[0].mac.dcf.ctsPolicy rateSelectionModule "\"^.rateSelection\""
par Scenario.node[0].wlan[0].mac.dcf typename "\"inet.linklayer.ieee80211.mac.coordinationfunction.Dcf\""
par Scenario.node[0].wlan[0].mac.dcf rxModule "\"^.rx\""
par Scenario.node[0].wlan[0].mac.dcf txModule "\"^.tx\""
scalar Scenario.node[0].wlan[0].mac.dcf packetReceivedFromPeer:count 0
attr interpolationmode none
attr title "packets received, count"
scalar Scenario.node[0].wlan[0].mac.dcf packetReceivedFromPeer:sum(packetBytes) 0
attr interpolationmode none
attr title "packets received, sum(packetBytes)"
scalar Scenario.node[0].wlan[0].mac.dcf packetReceivedFromPeerUnicast:count 0
attr interpolationmode none
attr source ieee80211Unicast(packetReceivedFromPeer)
attr title "packets received: unicast, count"
scalar Scenario.node[0].wlan[0].mac.dcf packetReceivedFromPeerUnicast:sum(packetBytes) 0
attr interpolationmode none
attr source ieee80211Unicast(packetReceivedFromPeer)
attr title "packets received: unicast, sum(packetBytes)"
scalar Scenario.node[0].wlan[0].mac.dcf packetReceivedFromPeerMulticast:count 0
attr interpolationmode none
attr source ieee80211Multicast(packetReceivedFromPeer)
attr title "packets received: multicast, count"
scalar Scenario.node[0].wlan[0].mac.dcf packetReceivedFromPeerMulticast:sum(packetBytes) 0
attr interpolationmode none
attr source ieee80211Multicast(packetReceivedFromPeer)
attr title "packets received: multicast, sum(packetBytes)"
scalar Scenario.node[0].wlan[0].mac.dcf packetReceivedFromPeerBroadcast:count 0
attr interpolationmode none
attr source ieee80211Broadcast(packetReceivedFromPeer)
attr title "packets received: broadcast, count"
scalar Scenario.node[0].wlan[0].mac.dcf packetReceivedFromPeerBroadcast:sum(packetBytes) 0
attr interpolationmode none
attr source ieee80211Broadcast(packetReceivedFromPeer)
attr title "packets received: broadcast, sum(packetBytes)"
scalar Scenario.node[0].wlan[0].mac.dcf packetReceivedFromPeerWithRetry:count 0
attr interpolationmode none
attr source ieee80211Retry(packetReceivedFromPeer)
attr title "packets received: with retry, count"
scalar Scenario.node[0].wlan[0].mac.dcf packetReceivedFromPeerWithRetry:sum(packetBytes) 0
attr interpolationmode none
attr source ieee80211Retry(packetReceivedFromPeer)
attr title "packets received: with retry, sum(packetBytes)"
scalar Scenario.node[0].wlan[0].mac.dcf packetReceivedFromPeerWithoutRetry:count 0
attr interpolationmode none
attr source ieee80211NotRetry(packetReceivedFromPeer)
attr title "packets received: without retry, count"
scalar Scenario.node[0].wlan[0].mac.dcf packetReceivedFromPeerWithoutRetry:sum(packetBytes) 0
attr interpolationmode none
attr source ieee80211NotRetry(packetReceivedFromPeer)
attr title "packets received: without retry, sum(packetBytes)"
scalar Scenario.node[0].wlan[0].mac.dcf packetSentToPeer:count 1
attr interpolationmode none
attr title "packets sent, count"
scalar Scenario.node[0].wlan[0].mac.dcf packetSentToPeer:sum(packetBytes) 158
attr interpolationmode none
attr title "packets sent, sum(packetBytes)"
scalar Scenario.node[0].wlan[0].mac.dcf packetSentToPeerUnicast:count 0
attr interpolationmode none
attr source ieee80211Unicast(packetSentToPeer)
attr title "packets sent: unicast, count"
scalar Scenario.node[0].wlan[0].mac.dcf packetSentToPeerUnicast:sum(packetBytes) 0
attr interpolationmode none
attr source ieee80211Unicast(packetSentToPeer)
attr title "packets sent: unicast, sum(packetBytes)"
scalar Scenario.node[0].wlan[0].mac.dcf packetSentToPeerMulticast:count 1
attr interpolationmode none
attr source ieee80211Multicast(packetSentToPeer)
attr title "packets sent: multicast, count"
scalar Scenario.node[0].wlan[0].mac.dcf packetSentToPeerMulticast:sum(packetBytes) 158
attr interpolationmode none
attr source ieee80211Multicast(packetSentToPeer)
attr title "packets sent: multicast, sum(packetBytes)"
scalar Scenario.node[0].wlan[0].mac.dcf packetSentToPeerBroadcast:count 0
attr interpolationmode none
attr source ieee80211Broadcast(packetSentToPeer)
attr title "packets sent: broadcast , count"
scalar Scenario.node[0].wlan[0].mac.dcf packetSentToPeerBroadcast:sum(packetBytes) 0
attr interpolationmode none
attr source ieee80211Broadcast(packetSentToPeer)
attr title "packets sent: broadcast , sum(packetBytes)"
scalar Scenario.node[0].wlan[0].mac.dcf packetSentToPeerWithRetry:count 0
attr interpolationmode none
attr source ieee80211Retry(packetSentToPeer)
attr title "packets sent: with retry, count"
scalar Scenario.node[0].wlan[0].mac.dcf packetSentToPeerWithRetry:sum(packetBytes) 0
attr interpolationmode none
attr source ieee80211Retry(packetSentToPeer)
attr title "packets sent: with retry, sum(packetBytes)"
scalar Scenario.node[0].wlan[0].mac.dcf packetSentToPeerWithoutRetry:count 1
attr interpolationmode none
attr source ieee80211NotRetry(packetSentToPeer)
attr title "packets sent: without retry, count"
scalar Scenario.node[0].wlan[0].mac.dcf packetSentToPeerWithoutRetry:sum(packetBytes) 158
attr interpolationmode none
attr source ieee80211NotRetry(packetSentToPeer)
attr title "packets sent: without retry, sum(packetBytes)"
scalar Scenario.node[0].wlan[0].mac.dcf packetDrop:count 0
attr interpolationmode none
attr source packetDropped
attr title "packet drops, count"
scalar Scenario.node[0].wlan[0].mac.dcf packetDrop:sum(packetBytes) 0
attr interpolationmode none
attr source packetDropped
attr title "packet drops, sum(packetBytes)"
scalar Scenario.node[0].wlan[0].mac.dcf packetDropNotAddressedToUs:count 0
attr interpolationmode none
attr source packetDropReasonIsNotAddressedToUs(packetDropped)
attr title "packet drops: not addressed to us, count"
scalar Scenario.node[0].wlan[0].mac.dcf packetDropNotAddressedToUs:sum(packetBytes) 0
attr interpolationmode none
attr source packetDropReasonIsNotAddressedToUs(packetDropped)
attr title "packet drops: not addressed to us, sum(packetBytes)"
scalar Scenario.node[0].wlan[0].mac.dcf packetDropQueueOverflow:count 0
attr interpolationmode none
attr source packetDropReasonIsQueueOverflow(packetDropped)
attr title "packet drops: queue overflow, count"
scalar Scenario.node[0].wlan[0].mac.dcf packetDropQueueOverflow:sum(packetBytes) 0
[...]
par Scenario.node[19].wlan[0].radio.receiver.errorModel corruptionMode "\"packet\""
attr enum packet,chunk,byte,bit
par Scenario.node[19].wlan[0].radio.receiver.errorModel snirMode "\"min\""
attr unit min,mean
par Scenario.node[19].wlan[0].radio.receiver.errorModel snirOffset 0dB
attr unit dB
par Scenario.node[19].wlan[0].radio.receiver typename "\"inet.physicallayer.wireless.ieee80211.packetlevel.Ieee80211DimensionalReceiver\""
par Scenario.node[19].wlan[0].radio.receiver snirThreshold 4dB
attr unit dB
par Scenario.node[19].wlan[0].radio.receiver snirThresholdMode "\"min\""
attr unit min,mean
par Scenario.node[19].wlan[0].radio.receiver energyDetection -85dBm
attr unit dBm
par Scenario.node[19].wlan[0].radio.receiver sensitivity -85dBm
attr unit dBm
par Scenario.node[19].wlan[0].radio.receiver centerFrequency 2.412e+09Hz
attr unit Hz
par Scenario.node[19].wlan[0].radio.receiver bandwidth 2.2e+07Hz
attr unit Hz
par Scenario.node[19].wlan[0].radio.receiver modulation "\"BPSK\""
par Scenario.node[19].wlan[0].radio.receiver opMode "\"p\""
attr enum a,b,g(erp),g(mixed),n(mixed-2.4Ghz),p,ac
par Scenario.node[19].wlan[0].radio.receiver bandName "\"5.9 GHz\""
attr enum "2.4 GHz,5 GHz,5 GHz (20 MHz),5 GHz (40 MHz),5 GHz (80 MHz),5 GHz (160 MHz),5.9 GHz"
par Scenario.node[19].wlan[0].radio.receiver channelNumber 3
par Scenario.node[19].wlan[0].radio typename "\"inet.physicallayer.wireless.ieee80211.packetlevel.Ieee80211DimensionalRadio\""
par Scenario.node[19].wlan[0].radio radioMediumModule "\"radioMedium\""
par Scenario.node[19].wlan[0].radio energySourceModule "\"\""
par Scenario.node[19].wlan[0].radio initialRadioMode "\"off\""
attr enum off,sleep,receiver,transmitter,transceiver
par Scenario.node[19].wlan[0].radio switchingTimes "\"ms 0 0 0 0 0 0 0 0 0 0 0 0 0 0 0 0 0 0 0 0 0 0 0 0 0\""
par Scenario.node[19].wlan[0].radio sendRawBytes false
par Scenario.node[19].wlan[0].radio separateTransmissionParts false
par Scenario.node[19].wlan[0].radio separateReceptionParts false
par Scenario.node[19].wlan[0].radio displayCommunicationRange false
par Scenario.node[19].wlan[0].radio displayInterferenceRange false
par Scenario.node[19].wlan[0].radio centerFrequency 2.412e+09Hz
attr unit Hz
par Scenario.node[19].wlan[0].radio bandwidth 1e+07Hz
attr unit Hz
par Scenario.node[19].wlan[0].radio signalAnalogRepresentation "\"scalar\""
attr enum scalar,dimensional
par Scenario.node[19].wlan[0].radio opMode "\"p\""
attr enum a,b,g(erp),g(mixed),n(mixed-2.4Ghz),p,ac
par Scenario.node[19].wlan[0].radio bandName "\"5.9 GHz\""
attr enum "2.4 GHz,5 GHz,5 GHz (20 MHz),5 GHz (40 MHz),5 GHz (80 MHz),5 GHz (160 MHz),5.9 GHz"
par Scenario.node[19].wlan[0].radio channelNumber 3
par Scenario.node[19].wlan[0].radio crcMode "\"declared\""
attr enum declared,computed
statistic Scenario.node[19].wlan[0].radio minSnir:histogram
field count 3
field mean 828.78582804757
field stddev 1428.4109628111
field min 1.8466154780847
field max 2478.1706954709
field sum 2486.3574841427
field sqrsum 6141373.6036755
attr source minimumSnir(packetSentToUpper)
attr title "Min SNIR, histogram"
bin	-inf	0
bin	0	2
bin	50	0
bin	100	0
bin	150	0
bin	200	0
bin	250	0
bin	300	0
bin	350	0
bin	400	0
bin	450	0
bin	500	0
bin	550	0
bin	600	0
bin	650	0
bin	700	0
bin	750	0
bin	800	0
bin	850	0
bin	900	0
bin	950	0
bin	1000	0
bin	1050	0
bin	1100	0
bin	1150	0
bin	1200	0
bin	1250	0
bin	1300	0
bin	1350	0
bin	1400	0
bin	1450	0
bin	1500	0
bin	1550	0
bin	1600	0
bin	1650	0
bin	1700	0
bin	1750	0
bin	1800	0
bin	1850	0
bin	1900	0
bin	1950	0
bin	2000	0
bin	2050	0
bin	2100	0
bin	2150	0
bin	2200	0
bin	2250	0
bin	2300	0
bin	2350	0
bin	2400	0
bin	2450	1
bin	2500	0
bin	2550	0
bin	2600	0
bin	2650	0
bin	2700	0
bin	2750	0
bin	2800	0
bin	2850	0
bin	2900	0
bin	2950	0
bin	3000	0
bin	3050	0
bin	3100	0
statistic Scenario.node[19].wlan[0].radio packetErrorRate:histogram
field count 3
field mean 0.66666666666667
field stddev 0.57735026918963
field min 0
field max 1
field sum 2
field sqrsum 2
attr source packetErrorRate(packetSentToUpper)
attr title "Packet error rate, histogram"
bin	-inf	0
bin	0	1
bin	1	2
bin	2	0
statistic Scenario.node[19].wlan[0].radio bitErrorRate:histogram
field count 0
field mean nan
field stddev nan
field min nan
field max nan
field sum 0
field sqrsum 0
attr source bitErrorRate(packetSentToUpper)
attr title "Bit error rate, histogram"
bin	-inf	0
bin	0	0
bin	1	0
statistic Scenario.node[19].wlan[0].radio symbolErrorRate:histogram
field count 0
field mean nan
field stddev nan
field min nan
field max nan
field sum 0
field sqrsum 0
attr source symbolErrorRate(packetSentToUpper)
attr title "Symbol error rate, histogram"
bin	-inf	0
bin	0	0
bin	1	0
scalar Scenario.node[19].wlan[0].radio transmissionState:count 4
attr interpolationmode sample-hold
attr source transmissionStateChanged
attr title "Radio transmission state, count"
scalar Scenario.node[19].wlan[0].radio receptionState:count 12
attr interpolationmode sample-hold
attr source receptionStateChanged
attr title "Radio reception state, count"
scalar Scenario.node[19].wlan[0].radio radioMode:count 5
attr interpolationmode sample-hold
attr source radioModeChanged
attr title "Radio mode, count"
statistic Scenario.node[19].wlan[0].radio radioChannel:histogram
field count 1
field mean 3
field stddev nan
field min 3
field max 3
field sum 3
field sqrsum 9
attr interpolationmode sample-hold
attr source radioChannelChanged
attr title "Radio channel, histogram"
bin	-inf	0
bin	2	0
bin	3	1
bin	4	0
par Scenario.node[19].wlan[0] typename "\"inet.linklayer.ieee80211.Ieee80211Interface\""
par Scenario.node[19].wlan[0] displayStringTextFormat "\"%a (%i)\\n%m\""
par Scenario.node[19].wlan[0] recordPcap false
par Scenario.node[19].wlan[0] numPcapRecorders 0
par Scenario.node[19].wlan[0] interfaceTableModule "\"Scenario.node[19].interfaceTable\""
par Scenario.node[19].wlan[0] energySourceModule "\"\""
par Scenario.node[19].wlan[0] opMode "\"p\""
attr enum a,b,g(erp),g(mixed),n(mixed-2.4Ghz),p,ac
par Scenario.node[19].wlan[0] address "\"0A-AA-00-00-00-14\""
attr mutable ""
par Scenario.node[19].wlan[0] bitrate -1bps
attr unit bps
par Scenario.node[19].ipv4.transportIn.channel typename "\"ned.IdealChannel\""
par Scenario.node[19].ipv4.up.out[0].channel typename "\"ned.IdealChannel\""
par Scenario.node[19].ipv4.lp.out[2].channel typename "\"ned.IdealChannel\""
par Scenario.node[19].ipv4.ifIn.channel typename "\"ned.IdealChannel\""
par Scenario.node[19].ipv4.configurator typename "\"inet.networklayer.configurator.ipv4.HostAutoConfigurator\""
par Scenario.node[19].ipv4.configurator interfaceTableModule "\"Scenario.node[19].interfaceTable\""
par Scenario.node[19].ipv4.configurator interfaces "\"wlan0\""
par Scenario.node[19].ipv4.configurator addressBase "\"10.0.0.0\""
par Scenario.node[19].ipv4.configurator netmask "\"255.0.0.0\""
par Scenario.node[19].ipv4.configurator mcastGroups "\"224.0.0.1\""
par Scenario.node[19].ipv4.routingTable typename "\"inet.networklayer.ipv4.Ipv4RoutingTable\""
par Scenario.node[19].ipv4.routingTable interfaceTableModule "\"Scenario.node[19].interfaceTable\""
par Scenario.node[19].ipv4.routingTable routerId "\"auto\""
par Scenario.node[19].ipv4.routingTable netmaskRoutes "\"*\""
par Scenario.node[19].ipv4.routingTable forwarding true
par Scenario.node[19].ipv4.routingTable multicastForwarding false
par Scenario.node[19].ipv4.routingTable useAdminDist false
par Scenario.node[19].ipv4.routingTable routingFile "\"\""
par Scenario.node[19].ipv4.natTable typename "\"inet.networklayer.ipv4.Ipv4NatTable\""
par Scenario.node[19].ipv4.natTable networkProtocolModule "\"^.ip\""
par Scenario.node[19].ipv4.natTable config "<config/> at content:1"
par Scenario.node[19].ipv4.up typename "\"inet.common.MessageDispatcher\""
par Scenario.node[19].ipv4.up displayStringTextFormat "\"processed %p pk (%l)\""
par Scenario.node[19].ipv4.igmp typename "\"inet.networklayer.ipv4.Igmpv2\""
par Scenario.node[19].ipv4.igmp interfaceTableModule "\"Scenario.node[19].interfaceTable\""
par Scenario.node[19].ipv4.igmp routingTableModule "\"Scenario.node[19].ipv4.routingTable\""
par Scenario.node[19].ipv4.igmp crcMode "\"declared\""
attr enum declared,computed
par Scenario.node[19].ipv4.igmp enabled true
par Scenario.node[19].ipv4.igmp robustnessVariable 2
par Scenario.node[19].ipv4.igmp queryInterval 125s
attr unit s
par Scenario.node[19].ipv4.igmp queryResponseInterval 10s
attr unit s
par Scenario.node[19].ipv4.igmp groupMembershipInterval 260s
attr unit s
par Scenario.node[19].ipv4.igmp otherQuerierPresentInterval 255s
attr unit s
par Scenario.node[19].ipv4.igmp startupQueryInterval 31.25s
attr unit s
par Scenario.node[19].ipv4.igmp startupQueryCount 2
par Scenario.node[19].ipv4.igmp lastMemberQueryInterval 1s
attr unit s
par Scenario.node[19].ipv4.igmp lastMemberQueryCount 2
par Scenario.node[19].ipv4.igmp unsolicitedReportInterval 10s
attr unit s
par Scenario.node[19].ipv4.icmp typename "\"inet.networklayer.ipv4.Icmp\""
par Scenario.node[19].ipv4.icmp interfaceTableModule "\"Scenario.node[19].interfaceTable\""
par Scenario.node[19].ipv4.icmp routingTableModule "\"Scenario.node[19].ipv4.routingTable\""
par Scenario.node[19].ipv4.icmp crcMode "\"declared\""
attr enum declared,computed
attr mutable ""
par Scenario.node[19].ipv4.icmp quoteLength 8B
attr mutable ""
attr unit B
par Scenario.node[19].ipv4.mp typename "\"inet.common.MessageDispatcher\""
par Scenario.node[19].ipv4.mp displayStringTextFormat "\"processed %p pk (%l)\""
par Scenario.node[19].ipv4.ip typename "\"inet.networklayer.ipv4.Ipv4\""
par Scenario.node[19].ipv4.ip interfaceTableModule "\"Scenario.node[19].interfaceTable\""
par Scenario.node[19].ipv4.ip routingTableModule "\"Scenario.node[19].ipv4.routingTable\""
par Scenario.node[19].ipv4.ip arpModule "\"Scenario.node[19].ipv4.arp\""
par Scenario.node[19].ipv4.ip icmpModule "\"Scenario.node[19].ipv4.icmp\""
par Scenario.node[19].ipv4.ip crcMode "\"declared\""
attr enum declared,computed
par Scenario.node[19].ipv4.ip timeToLive 32
par Scenario.node[19].ipv4.ip multicastTimeToLive 32
par Scenario.node[19].ipv4.ip fragmentTimeout 60s
attr unit s
par Scenario.node[19].ipv4.ip limitedBroadcast false
par Scenario.node[19].ipv4.ip directBroadcastInterfaces "\"\""
scalar Scenario.node[19].ipv4.ip packetDropAddressResolutionFailed:count 0
attr interpolationmode none
attr source packetDropReasonIsAddressResolutionFailed(packetDropped)
attr title "packet drop: address resolution failed, count"
scalar Scenario.node[19].ipv4.ip packetDropAddressResolutionFailed:sum(packetBytes) 0
attr interpolationmode none
attr source packetDropReasonIsAddressResolutionFailed(packetDropped)
attr title "packet drop: address resolution failed, sum(packetBytes)"
scalar Scenario.node[19].ipv4.ip packetDropHopLimitReached:count 0
attr interpolationmode none
attr source packetDropReasonIsHopLimitReached(packetDropped)
attr title "packet drop: hop limit reached, count"
scalar Scenario.node[19].ipv4.ip packetDropHopLimitReached:sum(packetBytes) 0
attr interpolationmode none
attr source packetDropReasonIsHopLimitReached(packetDropped)
attr title "packet drop: hop limit reached, sum(packetBytes)"
scalar Scenario.node[19].ipv4.ip packetDropForwardingDisabled:count 0
attr interpolationmode none
attr source packetDropReasonIsForwardingDisabled(packetDropped)
attr title "packet drop: forwarding disabled, count"
scalar Scenario.node[19].ipv4.ip packetDropForwardingDisabled:sum(packetBytes) 0
attr interpolationmode none
attr source packetDropReasonIsForwardingDisabled(packetDropped)
attr title "packet drop: forwarding disabled, sum(packetBytes)"
scalar Scenario.node[19].ipv4.ip packetDropNoInterfaceFound:count 0
attr interpolationmode none
attr source packetDropReasonIsNoInterfaceFound(packetDropped)
attr title "packet drop: no interface found, count"
scalar Scenario.node[19].ipv4.ip packetDropNoInterfaceFound:sum(packetBytes) 0
attr interpolationmode none
attr source packetDropReasonIsNoInterfaceFound(packetDropped)
attr title "packet drop: no interface found, sum(packetBytes)"
scalar Scenario.node[19].ipv4.ip packetDropNoRouteFound:count 0
attr interpolationmode none
attr source packetDropReasonIsNoRouteFound(packetDropped)
attr title "packet drop: no route found, count"
scalar Scenario.node[19].ipv4.ip packetDropNoRouteFound:sum(packetBytes) 0
attr interpolationmode none
attr source packetDropReasonIsNoRouteFound(packetDropped)
attr title "packet drop: no route found, sum(packetBytes)"
scalar Scenario.node[19].ipv4.ip packetDropUndefined:count 0
attr interpolationmode none
attr source packetDropReasonIsUndefined(packetDropped)
attr title "packet drop: undefined, count"
scalar Scenario.node[19].ipv4.ip packetDropUndefined:sum(packetBytes) 0
attr interpolationmode none
attr source packetDropReasonIsUndefined(packetDropped)
attr title "packet drop: undefined, sum(packetBytes)"
par Scenario.node[19].ipv4.arp typename "\"inet.networklayer.arp.ipv4.Arp\""
par Scenario.node[19].ipv4.arp interfaceTableModule "\"Scenario.node[19].interfaceTable\""
par Scenario.node[19].ipv4.arp routingTableModule "\"Scenario.node[19].ipv4.routingTable\""
par Scenario.node[19].ipv4.arp retryTimeout 1s
attr unit s
par Scenario.node[19].ipv4.arp retryCount 3
par Scenario.node[19].ipv4.arp cacheTimeout 120s
attr unit s
par Scenario.node[19].ipv4.arp proxyArpInterfaces "\"\""
scalar Scenario.node[19].ipv4.arp arpReplySent:count 0
attr source arpReplySent
attr title "ARP replies sent, count"
scalar Scenario.node[19].ipv4.arp arpReplySent:sum(packetBytes) 0
attr source arpReplySent
attr title "ARP replies sent, sum(packetBytes)"
scalar Scenario.node[19].ipv4.arp arpRequestSent:count 0
attr source arpRequestSent
attr title "ARP request sent, count"
scalar Scenario.node[19].ipv4.arp arpRequestSent:sum(packetBytes) 0
attr source arpRequestSent
attr title "ARP request sent, sum(packetBytes)"
scalar Scenario.node[19].ipv4.arp arpResolutionFailed:count 0
attr title "ARP failed resolutions, count"
scalar Scenario.node[19].ipv4.arp arpResolutionCompleted:count 0
attr title "ARP completed resolutions, count"
scalar Scenario.node[19].ipv4.arp arpResolutionInitiated:count 0
attr title "ARP initiated resolutions, count"
par Scenario.node[19].ipv4.lp typename "\"inet.common.MessageDispatcher\""
par Scenario.node[19].ipv4.lp displayStringTextFormat "\"processed %p pk (%l)\""
par Scenario.node[19].ipv4 typename "\"inet.networklayer.ipv4.Ipv4NetworkLayer\""
par Scenario.node[19].ipv4 forwarding true
par Scenario.node[19].ipv4 multicastForwarding false
par Scenario.node[19].ipv4 interfaceTableModule "\"Scenario.node[19].interfaceTable\""
par Scenario.node[19].ipv4 displayStringTextFormat "\"%i\""
par Scenario.node[19].nl typename "\"inet.common.MessageDispatcher\""
par Scenario.node[19].nl displayStringTextFormat "\"processed %p pk (%l)\""
par Scenario.node[19].udp typename "\"inet.transportlayer.udp.Udp\""
par Scenario.node[19].udp interfaceTableModule "\"Scenario.node[19].interfaceTable\""
par Scenario.node[19].udp icmpModule "\"^.ipv4.icmp\""
par Scenario.node[19].udp icmpv6Module "\"^.ipv6.icmpv6\""
par Scenario.node[19].udp crcMode "\"declared\""
attr enum disabled,declared,computed
scalar Scenario.node[19].udp packetReceived:count 2
attr interpolationmode none
attr source packetReceived
attr title "packets received, count"
scalar Scenario.node[19].udp packetReceived:sum(packetBytes) 216
attr interpolationmode none
attr source packetReceived
attr title "packets received, sum(packetBytes)"
scalar Scenario.node[19].udp packetSent:count 1
attr interpolationmode none
attr source packetSent
attr title "packets sent, count"
scalar Scenario.node[19].udp packetSent:sum(packetBytes) 108
attr interpolationmode none
attr source packetSent
attr title "packets sent, sum(packetBytes)"
scalar Scenario.node[19].udp passedUpPk:count 2
attr interpolationmode none
attr source packetSentToUpper
attr title "packets passed up, count"
scalar Scenario.node[19].udp droppedPkWrongPort:count 0
attr interpolationmode none
attr source packetDropReasonIsNoPortFound(packetDropped)
attr title "packets dropped (wrong port), count"
scalar Scenario.node[19].udp droppedPkBadChecksum:count 0
attr interpolationmode none
attr source packetDropReasonIsIncorrectlyReceived(packetDropped)
attr title "packets dropped (checksum error), count"
par Scenario.node[19].tcp typename "\"inet.transportlayer.tcp.Tcp\""
par Scenario.node[19].tcp crcMode "\"declared\""
attr enum declared,computed
par Scenario.node[19].tcp advertisedWindow 7504
par Scenario.node[19].tcp delayedAcksEnabled false
par Scenario.node[19].tcp nagleEnabled true
par Scenario.node[19].tcp limitedTransmitEnabled false
par Scenario.node[19].tcp increasedIWEnabled false
par Scenario.node[19].tcp sackSupport false
par Scenario.node[19].tcp windowScalingSupport false
par Scenario.node[19].tcp windowScalingFactor -1
par Scenario.node[19].tcp timestampSupport false
par Scenario.node[19].tcp mss 536
par Scenario.node[19].tcp msl 120s
attr unit s
par Scenario.node[19].tcp tcpAlgorithmClass "\"TcpReno\""
attr enum TcpVegas,TcpWestwood,TcpNewReno,TcpReno,TcpTahoe,TcpNoCongestionControl
par Scenario.node[19].tcp useDataNotification false
par Scenario.node[19].tcp dupthresh 3
par Scenario.node[19].tcp initialSsthresh 4294967295
par Scenario.node[19].tcp stopOperationExtraTime 0s
attr unit s
par Scenario.node[19].tcp stopOperationTimeout 2s
attr unit s
par Scenario.node[19].tcp ecnWillingness false
par Scenario.node[19].tcp dctcpGamma 0.0625
par Scenario.node[19].tn typename "\"inet.common.MessageDispatcher\""
par Scenario.node[19].tn displayStringTextFormat "\"processed %p pk (%l)\""
par Scenario.node[19].app[0] typename "\"thuyloi_aodv.veins_inet.VeinsInetSampleApplication\""
par Scenario.node[19].app[0] interfaceTableModule "\"Scenario.node[19].interfaceTable\""
par Scenario.node[19].app[0] interface "\"wlan0\""
scalar Scenario.node[19].app[0] packetReceived:count 2
attr interpolationmode none
attr source packetReceived
attr title "packets received, count"
scalar Scenario.node[19].app[0] packetReceived:sum(packetBytes) 200
attr interpolationmode none
attr source packetReceived
attr title "packets received, sum(packetBytes)"
statistic Scenario.node[19].app[0] rcvdPkLifetime:stats
field count 2
field mean 0.000152402551
field stddev 0
field min 0.000152402551
field max 0.000152402551
field sum 0.000304805102
field sqrsum 4.6453075102615e-08
attr interpolationmode none
attr source dataAge(packetReceived)
attr title "received packet lifetime, stats"
attr unit s
scalar Scenario.node[19].app[0] packetSent:count 1
attr interpolationmode none
attr source packetSent
attr title "packets sent, count"
scalar Scenario.node[19].app[0] packetSent:sum(packetBytes) 100
attr interpolationmode none
attr source packetSent
attr title "packets sent, sum(packetBytes)"
par Scenario.node[19].at typename "\"inet.common.MessageDispatcher\""
par Scenario.node[19].at displayStringTextFormat "\"processed %p pk (%l)\""
par Scenario.node[19] typename "\"thuyloi_aodv.veins_inet.VeinsInetCar\""
par Scenario.node[19] hasStatus false
par Scenario.node[19] osgModel "\"\""
par Scenario.node[19] osgModelColor "\"\""
par Scenario.node[19] canvasImage "\"\""
par Scenario.node[19] canvasImageColor "\"\""
par Scenario.node[19] recordPcap false
par Scenario.node[19] numPcapRecorders 0
par Scenario.node[19] numLoInterfaces 1
par Scenario.node[19] numWlanInterfaces 1
par Scenario.node[19] numEthInterfaces 0
par Scenario.node[19] numPppInterfaces 0
par Scenario.node[19] numTunInterfaces 0
par Scenario.node[19] numVirtInterfaces 0
par Scenario.node[19] hasIpv4 true
par Scenario.node[19] hasIpv6 false
par Scenario.node[19] hasGn false
par Scenario.node[19] forwarding true
par Scenario.node[19] multicastForwarding false
par Scenario.node[19] hasUdp true
par Scenario.node[19] hasTcp true
par Scenario.node[19] hasSctp false
par Scenario.node[19] numApps 1
par Scenario typename "\"thuyloi_aodv.simulations.veins_inet.Scenario\""
par Scenario useOsg false

