version 3
run Default-0-20231231-15:51:56-16292
attr configname Default
attr datetime 20231231-15:51:56
attr datetimef 20231231-155156
attr experiment Default
attr inifile omnetpp.ini
attr iterationvars ""
attr iterationvarsd ""
attr iterationvarsf ""
attr measurement ""
attr network RSUExampleScenario
attr processid 16292
attr repetition 0
attr replication #0
attr resultdir results
attr runnumber 0
attr seedset 0
config image-path ../../../../inet-4.3.5/inet-4.3.5/images;../../../../veins-5.2/veins-veins-5.2/images
config cmdenv-express-mode true
config cmdenv-autoflush true
config cmdenv-status-frequency 1s
config **.cmdenv-log-level info
config image-path ../../images
config network RSUExampleScenario
config debug-on-errors true
config print-undisposed true
config sim-time-limit 200s
config **.scalar-recording true
config **.vector-recording true
config *.playgroundSizeX 2500m
config *.playgroundSizeY 2500m
config *.playgroundSizeZ 50m
config *.annotations.draw true
config *.obstacles.obstacles "xmldoc(\"config.xml\", \"//AnalogueModel[@type='SimpleObstacleShadowing']/obstacles\")"
config *.manager.updateInterval 1s
config *.manager.host "\"localhost\""
config *.manager.port 9999
config *.manager.autoShutdown true
config *.manager.launchConfig "xmldoc(\"erlangen.launchd.xml\")"
config *.rsu[0].mobility.x 2000
config *.rsu[0].mobility.y 2000
config *.rsu[0].mobility.z 3
config *.rsu[*].applType "\"TraCIDemoRSU11p\""
config *.rsu[*].appl.headerLength "80 bit"
config *.rsu[*].appl.sendBeacons false
config *.rsu[*].appl.dataOnSch false
config *.rsu[*].appl.beaconInterval 1s
config *.rsu[*].appl.beaconUserPriority 7
config *.rsu[*].appl.dataUserPriority 5
config *.rsu[*].nic.phy80211p.antennaOffsetZ "0 m"
config *.connectionManager.sendDirect true
config *.connectionManager.maxInterfDist 2600m
config *.connectionManager.drawMaxIntfDist false
config *.**.nic.mac1609_4.useServiceChannel false
config *.**.nic.mac1609_4.txPower 20mW
config *.**.nic.mac1609_4.bitrate 6Mbps
config *.**.nic.phy80211p.minPowerLevel -110dBm
config *.**.nic.phy80211p.useNoiseFloor true
config *.**.nic.phy80211p.noiseFloor -98dBm
config *.**.nic.phy80211p.decider "xmldoc(\"config.xml\")"
config *.**.nic.phy80211p.analogueModels "xmldoc(\"config.xml\")"
config *.**.nic.phy80211p.usePropagationDelay true
config *.**.nic.phy80211p.antenna "xmldoc(\"antenna.xml\", \"/root/Antenna[@id='monopole']\")"
config *.node[*].nic.phy80211p.antennaOffsetY "0 m"
config *.node[*].nic.phy80211p.antennaOffsetZ "1.895 m"
config *.node[*].applType "\"TraCIDemo11p\""
config *.node[*].appl.headerLength "80 bit"
config *.node[*].appl.sendBeacons false
config *.node[*].appl.dataOnSch false
config *.node[*].appl.beaconInterval 1s
config *.node[*].veinsmobility.x 0
config *.node[*].veinsmobility.y 0
config *.node[*].veinsmobility.z 0
config *.node[*].veinsmobility.setHostSpeed false
config *.node[*0].veinsmobility.accidentCount 1
config *.node[*0].veinsmobility.accidentStart 73s
config *.node[*0].veinsmobility.accidentDuration 50s

vector 0 RSUExampleScenario.node[0].veinsmobility posx ETV
vector 1 RSUExampleScenario.node[0].veinsmobility posy ETV
vector 2 RSUExampleScenario.node[0].veinsmobility speed ETV
vector 3 RSUExampleScenario.node[0].veinsmobility acceleration ETV
vector 4 RSUExampleScenario.node[0].veinsmobility co2emission ETV
vector 5 RSUExampleScenario.node[1].veinsmobility posx ETV
vector 6 RSUExampleScenario.node[1].veinsmobility posy ETV
vector 7 RSUExampleScenario.node[1].veinsmobility speed ETV
vector 8 RSUExampleScenario.node[1].veinsmobility acceleration ETV
vector 9 RSUExampleScenario.node[1].veinsmobility co2emission ETV
vector 10 RSUExampleScenario.node[2].veinsmobility posx ETV
vector 11 RSUExampleScenario.node[2].veinsmobility posy ETV
vector 12 RSUExampleScenario.node[2].veinsmobility speed ETV
vector 13 RSUExampleScenario.node[2].veinsmobility acceleration ETV
vector 14 RSUExampleScenario.node[2].veinsmobility co2emission ETV
vector 15 RSUExampleScenario.node[3].veinsmobility posx ETV
vector 16 RSUExampleScenario.node[3].veinsmobility posy ETV
vector 17 RSUExampleScenario.node[3].veinsmobility speed ETV
vector 18 RSUExampleScenario.node[3].veinsmobility acceleration ETV
vector 19 RSUExampleScenario.node[3].veinsmobility co2emission ETV
vector 20 RSUExampleScenario.node[4].veinsmobility posx ETV
vector 21 RSUExampleScenario.node[4].veinsmobility posy ETV
vector 22 RSUExampleScenario.node[4].veinsmobility speed ETV
vector 23 RSUExampleScenario.node[4].veinsmobility acceleration ETV
vector 24 RSUExampleScenario.node[4].veinsmobility co2emission ETV
vector 25 RSUExampleScenario.node[5].veinsmobility posx ETV
vector 26 RSUExampleScenario.node[5].veinsmobility posy ETV
vector 27 RSUExampleScenario.node[5].veinsmobility speed ETV
vector 28 RSUExampleScenario.node[5].veinsmobility acceleration ETV
vector 29 RSUExampleScenario.node[5].veinsmobility co2emission ETV
vector 30 RSUExampleScenario.node[6].veinsmobility posx ETV
vector 31 RSUExampleScenario.node[6].veinsmobility posy ETV
vector 32 RSUExampleScenario.node[6].veinsmobility speed ETV
vector 33 RSUExampleScenario.node[6].veinsmobility acceleration ETV
vector 34 RSUExampleScenario.node[6].veinsmobility co2emission ETV
vector 35 RSUExampleScenario.node[7].veinsmobility posx ETV
vector 36 RSUExampleScenario.node[7].veinsmobility posy ETV
vector 37 RSUExampleScenario.node[7].veinsmobility speed ETV
vector 38 RSUExampleScenario.node[7].veinsmobility acceleration ETV
vector 39 RSUExampleScenario.node[7].veinsmobility co2emission ETV
vector 40 RSUExampleScenario.node[8].veinsmobility posx ETV
vector 41 RSUExampleScenario.node[8].veinsmobility posy ETV
vector 42 RSUExampleScenario.node[8].veinsmobility speed ETV
vector 43 RSUExampleScenario.node[8].veinsmobility acceleration ETV
vector 44 RSUExampleScenario.node[8].veinsmobility co2emission ETV
vector 45 RSUExampleScenario.node[9].veinsmobility posx ETV
vector 46 RSUExampleScenario.node[9].veinsmobility posy ETV
vector 47 RSUExampleScenario.node[9].veinsmobility speed ETV
vector 48 RSUExampleScenario.node[9].veinsmobility acceleration ETV
vector 49 RSUExampleScenario.node[9].veinsmobility co2emission ETV
vector 50 RSUExampleScenario.node[10].veinsmobility posx ETV
vector 51 RSUExampleScenario.node[10].veinsmobility posy ETV
vector 52 RSUExampleScenario.node[10].veinsmobility speed ETV
vector 53 RSUExampleScenario.node[10].veinsmobility acceleration ETV
vector 54 RSUExampleScenario.node[10].veinsmobility co2emission ETV
vector 55 RSUExampleScenario.node[11].veinsmobility posx ETV
vector 56 RSUExampleScenario.node[11].veinsmobility posy ETV
vector 57 RSUExampleScenario.node[11].veinsmobility speed ETV
vector 58 RSUExampleScenario.node[11].veinsmobility acceleration ETV
vector 59 RSUExampleScenario.node[11].veinsmobility co2emission ETV
vector 60 RSUExampleScenario.node[12].veinsmobility posx ETV
vector 61 RSUExampleScenario.node[12].veinsmobility posy ETV
vector 62 RSUExampleScenario.node[12].veinsmobility speed ETV
vector 63 RSUExampleScenario.node[12].veinsmobility acceleration ETV
vector 64 RSUExampleScenario.node[12].veinsmobility co2emission ETV
vector 65 RSUExampleScenario.node[13].veinsmobility posx ETV
vector 66 RSUExampleScenario.node[13].veinsmobility posy ETV
vector 67 RSUExampleScenario.node[13].veinsmobility speed ETV
vector 68 RSUExampleScenario.node[13].veinsmobility acceleration ETV
vector 69 RSUExampleScenario.node[13].veinsmobility co2emission ETV
vector 70 RSUExampleScenario.node[14].veinsmobility posx ETV
vector 71 RSUExampleScenario.node[14].veinsmobility posy ETV
vector 72 RSUExampleScenario.node[14].veinsmobility speed ETV
vector 73 RSUExampleScenario.node[14].veinsmobility acceleration ETV
vector 74 RSUExampleScenario.node[14].veinsmobility co2emission ETV
vector 75 RSUExampleScenario.node[15].veinsmobility posx ETV
vector 76 RSUExampleScenario.node[15].veinsmobility posy ETV
vector 77 RSUExampleScenario.node[15].veinsmobility speed ETV
vector 78 RSUExampleScenario.node[15].veinsmobility acceleration ETV
vector 79 RSUExampleScenario.node[15].veinsmobility co2emission ETV
vector 80 RSUExampleScenario.node[16].veinsmobility posx ETV
vector 81 RSUExampleScenario.node[16].veinsmobility posy ETV
vector 82 RSUExampleScenario.node[16].veinsmobility speed ETV
vector 83 RSUExampleScenario.node[16].veinsmobility acceleration ETV
vector 84 RSUExampleScenario.node[16].veinsmobility co2emission ETV
vector 85 RSUExampleScenario.node[17].veinsmobility posx ETV
vector 86 RSUExampleScenario.node[17].veinsmobility posy ETV
vector 87 RSUExampleScenario.node[17].veinsmobility speed ETV
vector 88 RSUExampleScenario.node[17].veinsmobility acceleration ETV
vector 89 RSUExampleScenario.node[17].veinsmobility co2emission ETV
vector 90 RSUExampleScenario.node[18].veinsmobility posx ETV
vector 91 RSUExampleScenario.node[18].veinsmobility posy ETV
vector 92 RSUExampleScenario.node[18].veinsmobility speed ETV
vector 93 RSUExampleScenario.node[18].veinsmobility acceleration ETV
vector 94 RSUExampleScenario.node[18].veinsmobility co2emission ETV
vector 95 RSUExampleScenario.node[19].veinsmobility posx ETV
vector 96 RSUExampleScenario.node[19].veinsmobility posy ETV
vector 97 RSUExampleScenario.node[19].veinsmobility speed ETV
vector 98 RSUExampleScenario.node[19].veinsmobility acceleration ETV
vector 99 RSUExampleScenario.node[19].veinsmobility co2emission ETV
vector 100 RSUExampleScenario.node[20].veinsmobility posx ETV
vector 101 RSUExampleScenario.node[20].veinsmobility posy ETV
vector 102 RSUExampleScenario.node[20].veinsmobility speed ETV
vector 103 RSUExampleScenario.node[20].veinsmobility acceleration ETV
vector 104 RSUExampleScenario.node[20].veinsmobility co2emission ETV
vector 105 RSUExampleScenario.node[21].veinsmobility posx ETV
vector 106 RSUExampleScenario.node[21].veinsmobility posy ETV
vector 107 RSUExampleScenario.node[21].veinsmobility speed ETV
vector 108 RSUExampleScenario.node[21].veinsmobility acceleration ETV
vector 109 RSUExampleScenario.node[21].veinsmobility co2emission ETV
vector 110 RSUExampleScenario.node[22].veinsmobility posx ETV
vector 111 RSUExampleScenario.node[22].veinsmobility posy ETV
vector 112 RSUExampleScenario.node[22].veinsmobility speed ETV
vector 113 RSUExampleScenario.node[22].veinsmobility acceleration ETV
vector 114 RSUExampleScenario.node[22].veinsmobility co2emission ETV
vector 115 RSUExampleScenario.node[23].veinsmobility posx ETV
vector 116 RSUExampleScenario.node[23].veinsmobility posy ETV
vector 117 RSUExampleScenario.node[23].veinsmobility speed ETV
vector 118 RSUExampleScenario.node[23].veinsmobility acceleration ETV
vector 119 RSUExampleScenario.node[23].veinsmobility co2emission ETV
vector 120 RSUExampleScenario.node[24].veinsmobility posx ETV
vector 121 RSUExampleScenario.node[24].veinsmobility posy ETV
0	2	1	2414.8476884116
0	3	2	2411.8243290941
0	4	3	2407.1592244543
0	5	4	2402.288200066
0	6	5	2396.1394374635
0	7	6	2388.6993875942
0	8	7	2379.889221533
0	9	8	2370.1207192459
0	10	9	2360.3141803208
0	11	10	2350.5099475634
0	12	11	2341.0010868867
0	13	12	2334.5620136983
0	14	13	2337.6803779466
0	15	14	2348.3497968862
0	16	15	2358.6961674725
0	17	16	2371.6616533546
0	18	17	2385.4706804305
0	19	18	2399.3588350668
0	20	19	2412.4541998667
0	21	20	2421.4418196582
0	22	21	2428.417609864
0	23	22	2431.468930052
0	24	23	2433.1513403206
0	25	24	2435.1237040944
0	26	25	2437.2173147583
0	27	26	2438.6437980286
0	28	27	2439.5074353185
0	29	28	2440.517813261
0	30	29	2441.5286354903
0	31	30	2442.5392864447
0	32	31	2443.5505626462
0	33	32	2444.5611125134
0	34	33	2445.5724211388
0	35	34	2446.5834693939
0	36	35	2447.5934051003
0	37	36	2448.6036931522
0	38	37	2449.6148620235
0	39	38	2450.6248001783
0	40	39	2449.5880553933
0	41	40	2448.4757357414
0	42	41	2447.3635385588
0	43	42	2446.250303259
0	44	43	2445.1365203297
0	45	44	2444.0235521834
0	46	45	2442.9111769209
0	47	46	2441.7982721732
0	48	47	2440.6856421625
0	49	48	2439.7151308154
0	50	49	2438.7725309408
0	51	50	2437.9056889905
0	52	51	2432.8785054281
0	53	52	2422.5273191113
0	54	53	2409.439604845
0	55	54	2395.517893619
0	56	55	2381.592286239
0	57	56	2367.6659531716
0	58	57	2353.7601239877
0	59	58	2339.8337569573
0	60	59	2325.9069679289
0	61	60	2311.9542202253
0	62	61	2298.0325140053
0	63	62	2284.0857072632
0	64	63	2270.1754193477
0	65	64	2256.2378749268
0	66	65	2242.3725172955
0	67	66	2228.5568932705
0	68	67	2214.8035730832
0	69	68	2201.6130456962
0	70	69	2188.4247624045
0	71	70	2175.5107078577
0	72	71	2163.5018647154
0	73	72	2152.2359160049
0	74	73	2144.5614629743
1	2	1	1578.4613427464
1	3	2	1579.5715045081
1	4	3	1581.5561876604
1	5	4	1586.4898643075
1	6	5	1592.7177137369
1	7	6	1600.2534592729
1	8	7	1609.1769437566
1	9	8	1619.0710908128
1	10	9	1629.0037637418
1	11	10	1638.9341008412
1	12	11	1649.1129276818
1	13	12	1661.0453354148
1	14	13	1673.5713017788
1	15	14	1682.4825292248
1	16	15	1691.8131453674
1	17	16	1695.5671389326
1	18	17	1697.3762977775
1	19	18	1698.7149431584
1	20	19	1699.9531973498
1	21	20	1700.8030368192
1	22	21	1701.4822415169
1	23	22	1709.488976148
1	24	23	1720.5600911779
1	25	24	1733.5392477075
1	26	25	1747.3162704222
1	27	26	1761.1584832035
1	28	27	1775.0702432813
1	29	28	1788.9649324082
1	30	29	1802.8657313576
1	31	30	1816.7641749373
1	32	31	1830.6712168986
1	33	32	1844.5682703312
1	34	33	1858.4757581847
1	35	34	1872.3796654344
1	36	35	1886.2682729438
1	37	36	1900.1617258992
1	38	37	1914.0672918586
1	39	38	1927.95593304
1	40	39	1941.8192613758
1	41	40	1955.7024557721
1	42	41	1969.5841215905
1	43	42	1983.4787444612
1	44	43	1997.3802024601
1	45	44	2011.2714909082
1	46	45	2025.1553793969
1	47	46	2039.0458765477
1	48	47	2052.9329446238
1	49	48	2066.8462265795
1	50	49	2080.7728807703
1	51	50	2094.6498483503
1	52	51	2107.3969092406
1	53	52	2116.410831539
1	54	53	2120.9360540062
1	55	54	2120.5048353085
1	56	55	2120.0344859883
1	57	56	2119.5641121576
1	58	57	2119.0944308629
1	59	58	2118.6240558857
1	60	59	2118.1536666537
1	61	60	2117.6824006466
1	62	61	2117.2121830918
1	63	62	2116.7411177447
1	64	63	2116.2712858524
1	65	64	2115.8005333487
1	66	65	2114.7955725584
1	67	66	2112.8364102887
1	68	67	2110.6440530941
1	69	68	2106.1704403665
1	70	69	2101.6975887315
1	71	70	2096.6391956527
1	72	71	2089.5697793076
1	73	72	2082.9376931852
1	74	73	2078.419863862
2	3	2	4.1061966058897
2	4	3	6.0195495591482
2	5	4	7.7148368984793
2	6	5	9.5879868385225
2	7	6	11.391389363371
2	8	7	13.513839789145
2	9	8	13.99235115225
2	10	9	13.890224446259
2	11	10	13.976677174468
2	12	11	13.994826577434
2	13	12	13.923680325528
2	14	13	13.923542996629
2	15	14	13.91007151508
2	16	15	13.964598868005
2	17	16	13.995233640105
2	18	17	13.952304350403
2	19	18	13.956911946491
2	20	19	11.503494614513
2	21	20	7.0034946145128
2	22	21	7.8970062485022
2	23	22	10.10483181514
2	24	23	11.990706169653
2	25	24	13.981089308816
2	26	25	13.965594365916
2	27	26	13.989059597438
2	28	27	13.956378436291
2	29	28	13.910982951869
2	30	29	13.88918493646
2	31	30	13.908189346099
2	32	31	13.983992603337
2	33	32	13.971500478752
2	34	33	13.873081948087
2	35	34	13.985133641064
2	36	35	13.886848415199
2	37	36	13.876205747321
2	38	37	13.967912819823
2	39	38	13.871047234884
2	40	39	13.89239756926
2	41	40	13.872267716837
2	42	41	13.999815066161
2	43	42	13.964707984752
2	44	43	13.906584702837
2	45	44	13.922364303169
2	46	45	13.929034490574
2	47	46	13.93922677479
2	48	47	13.924399639922
2	49	48	13.96850544848
2	50	49	13.986686690277
2	51	50	13.935194088209
2	52	51	13.930097484484
2	53	52	13.948393711536
2	54	53	13.882971800906
2	55	54	13.87138918183
2	56	55	13.933780807857
2	57	56	13.942265776542
2	58	57	13.95140511482
2	59	58	13.886548467774
2	60	59	13.920721456567
2	61	60	13.906796863726
2	62	61	13.917803910668
2	63	62	13.924582225601
2	64	63	13.959688465288
2	65	64	13.957318032989
2	66	65	13.940553226951
2	67	66	13.998651232829
2	68	67	13.999179182528
2	69	68	13.886099785112
2	70	69	13.881868150404
2	71	70	13.887636745651
2	72	71	13.978686858166
2	73	72	11.380505228889
2	74	73	6.8805052288885
3	4	3	1.9133529532584
3	5	4	1.6952873393311
3	6	5	1.8731499400432
3	7	6	1.8034025248489
3	8	7	2.1224504257739
3	9	8	0.47851136310433
3	10	9	-0.1021267059911
3	11	10	0.086452728209551
3	12	11	0.018149402965792
3	13	12	-0.071146251906175
3	14	13	-0.0001373288989992
3	15	14	-0.013471481548622
3	16	15	0.054527352924923
3	17	16	0.03063477210002
3	18	17	-0.04292928970186
3	19	18	0.0046075960877356
3	20	19	-2.4534173319781
3	21	20	-4.5
3	22	21	0.8935116339894
3	23	22	2.2078255666373
3	24	23	1.8858743545134
3	25	24	1.9903831391631
3	26	25	-0.01549494290026
3	27	26	0.023465231521987
3	28	27	-0.032681161146611
3	29	28	-0.045395484422334
3	30	29	-0.021798015409148
3	31	30	0.019004409639164
3	32	31	0.075803257238585
3	33	32	-0.012492124584968
3	34	33	-0.098418530665803
3	35	34	0.11205169297755
3	36	35	-0.098285225864965
3	37	36	-0.01064266787842
3	38	37	0.091707072502468
3	39	38	-0.096865584938786
3	40	39	0.021350334375166
3	41	40	-0.020129852422979
3	42	41	0.12754734932445
3	43	42	-0.035107081409079
3	44	43	-0.058123281914741
3	45	44	0.015779600332026
3	46	45	0.0066701874043797
3	47	46	0.010192284216172
3	48	47	-0.014827134867664
3	49	48	0.044105808557942
3	50	49	0.018181241797283
3	51	50	-0.051492602068466
3	52	51	-0.0050966037251055
3	53	52	0.018296227052343
3	54	53	-0.065421910630539
3	55	54	-0.011582619075197
3	56	55	0.062391626026946
3	57	56	0.0084849686850799
3	58	57	0.0091393382777465
3	59	58	-0.064856647045817
3	60	59	0.034172988792415
3	61	60	-0.013924592840485
3	62	61	0.011007046941668
3	63	62	0.0067783149331806
3	64	63	0.035106239686721
3	65	64	-0.0023704322986315
3	66	65	-0.016764806038699
3	67	66	0.058098005878273
3	68	67	0.0005279496987356
3	69	68	-0.11307939741528
3	70	69	-0.0042316347081215
3	71	70	0.0057685952470639
3	72	71	0.091050112515221
3	73	72	-2.598181629278
3	74	73	-4.5
4	4	3	4.1962556146115
4	5	4	4.6765885426193
4	6	5	5.9822455727343
4	7	6	6.7469998477461
4	8	7	8.9023657158011
4	9	8	3.651678681686
4	10	9	1.6857621818206
4	11	10	2.3276633668785
4	12	11	2.0995306276608
4	13	12	1.7923040941768
4	14	13	2.0305681317735
4	15	14	1.9844951865828
4	16	15	2.2187318873595
4	17	16	2.1416854339172
4	18	17	1.8896148890835
4	19	18	2.0499339673421
4	20	19	0.973
4	21	20	0.973
4	22	21	3.236958348016
4	23	22	7.0694109561587
4	24	23	7.2974163894139
4	25	24	8.7433911631671
4	26	25	1.9831721788576
4	27	26	2.116835898497
4	28	27	1.9244585801898
4	29	28	1.8775583559564
4	30	29	1.9545657515643
4	31	30	2.0931646705581
4	32	31	2.2926746988581
4	33	32	1.993865292131
4	34	33	1.6968396252803
4	35	34	2.4149847823944
4	36	35	1.6983583398882
4	37	36	1.9906198998388
4	38	37	2.3442713071536
4	39	38	1.7018725964397
4	40	39	2.0993392475273
4	41	40	1.9585122345881
4	42	41	2.4691677522194
4	43	42	1.9170802753567
4	44	43	1.8345014514108
4	45	44	2.0838538984303
4	46	45	2.0539801513469
4	47	46	2.0668686152862
4	48	47	1.9813596940184
4	49	48	2.1840996762636
4	50	49	2.0987681125428
4	51	50	1.8592856847688
4	52	51	2.0145873760113
4	53	52	2.0950692067684
4	54	53	1.8080099866508
4	55	54	1.9870007069688
4	56	55	2.2415869227426
4	57	56	2.0614496349521
4	58	57	2.0646020593826
4	59	58	1.8102089718445
4	60	59	2.1453880261281
4	61	60	1.9826536733129
4	62	61	2.0673636130683
4	63	62	2.0538817544551
4	64	63	2.1528270365066
4	65	64	2.0265038417738
4	66	65	1.9764402783138
4	67	66	2.2347131127692
4	68	67	2.0405446651404
4	69	68	1.6487905152147
4	70	69	2.0126291187762
4	71	70	2.0466796925005
4	72	71	2.3433989621326
4	73	72	0.973
4	74	73	0.973
5	5	4	2414.8767583254
5	6	5	2411.8725636174
5	7	6	2407.2970525089
5	8	7	2402.4626210862
5	9	8	2396.3056860371
5	10	9	2388.8743536096
5	11	10	2380.097228827
5	12	11	2370.3507264333
5	13	12	2360.5878487076
5	14	13	2350.7849318213
5	15	14	2341.2418729237
5	16	15	2334.6305580324
5	17	16	2337.3467480277
5	18	17	2348.0519014368
5	19	18	2358.3998493504
5	20	19	2371.2788021446
5	21	20	2385.0887639745
5	22	21	2398.4985461925
5	23	22	2411.2485283293
5	24	23	2420.6905829484
5	25	24	2427.6440450998
5	26	25	2431.3031180431
5	27	26	2432.9057471878
5	28	27	2434.8184996871
5	29	28	2436.9106889558
5	30	29	2438.5031214217
5	31	30	2439.359314087
5	32	31	2440.3695716034
5	33	32	2441.3815056744
5	34	33	2442.392207776
5	35	34	2443.4019859718
5	36	35	2444.4122552489
5	37	36	2445.4251439738
5	38	37	2446.4367595227
5	39	38	2447.4467230743
5	40	39	2448.4574488286
5	41	40	2449.467800329
5	42	41	2450.4780716181
5	43	42	2449.7461704329
5	44	43	2448.6331060936
5	45	44	2447.5209445587
5	46	45	2446.407523851
5	47	46	2445.2946584851
5	48	47	2444.1824360332
5	49	48	2443.0706190476
5	50	49	2441.9568028547
5	51	50	2440.8451110823
5	52	51	2439.8503503047
5	53	52	2438.9091742415
5	54	53	2438.2310626655
5	55	54	2433.9050446447
5	56	55	2424.21615465
5	57	56	2411.3460908785
5	58	57	2397.4706148925
5	59	58	2383.5587488873
5	60	59	2369.633660475
5	61	60	2355.7048479554
5	62	61	2341.7904321874
5	63	62	2327.8638711022
5	64	63	2313.9188814831
5	65	64	2299.9979078089
5	66	65	2286.0826278217
5	67	66	2272.1551827891
5	68	67	2258.2333055256
5	69	68	2244.3319301521
5	70	69	2230.5388995206
5	71	70	2216.7493601282
5	72	71	2203.5089906314
5	73	72	2190.3028214657
5	74	73	2177.2175397498
6	5	4	1578.4506684253
6	6	5	1579.5537930429
6	7	6	1581.4165868293
6	8	7	1586.3131998433
6	9	8	1592.5493268352
6	10	9	1600.0762428036
6	11	10	1608.9662610246
6	12	11	1618.8381252186
6	13	12	1628.7265753681
6	14	13	1638.6555796713
6	15	14	1648.8046840783
6	16	15	1660.6325348346
6	17	16	1673.301875555
6	18	17	1682.2138796467
6	19	18	1691.5459182626
6	20	19	1695.5099147679
6	21	20	1697.3308411958
6	22	21	1698.6335971011
6	23	22	1699.8391930545
6	24	23	1700.7320023719
6	25	24	1701.2941834759
6	26	25	1708.3978488175
6	27	26	1718.9439634858
6	28	27	1731.5308475178
6	29	28	1745.2985167308
6	30	29	1759.1189484736
6	31	30	1773.033284259
6	32	31	1786.9263172904
6	33	32	1800.8424062571
6	34	33	1814.7415532097
6	35	34	1828.6279946407
6	36	35	1842.5211894047
6	37	36	1856.4504067414
6	38	37	1870.362115399
6	39	38	1884.2511058366
6	40	39	1898.150578063
6	41	40	1912.0449035605
6	42	41	1925.9381259941
6	43	42	1939.8457802581
6	44	43	1953.7382693188
6	45	44	1967.6194902081
6	46	45	1981.5164272105
6	47	46	1995.4064328251
6	48	47	2009.2884140396
6	49	48	2023.165334505
6	50	49	2037.0672076773
6	51	50	2050.942565321
6	52	51	2064.8483957723
6	53	52	2078.754013543
6	54	53	2092.6537938379
6	55	54	2105.6893007364
6	56	55	2115.3934075218
6	57	56	2120.5034639826
6	58	57	2120.5707901428
6	59	58	2120.100904949
6	60	59	2119.6305731572
6	61	60	2119.160115581
6	62	61	2118.6901442679
6	63	62	2118.2197627351
6	64	63	2117.748758764
6	65	64	2117.2785659507
6	66	65	2116.8085654471
6	67	66	2116.3381540589
6	68	67	2115.8679307271
6	69	68	2115.0734324455
6	70	69	2113.117474094
6	71	70	2111.1620108271
6	72	71	2106.8134566117
6	73	72	2102.3345389208
6	74	73	2097.6439806372
7	6	5	4.0332649588119
7	7	6	5.8265110515686
7	8	7	7.7852127750962
7	9	8	9.5658873894228
7	10	9	11.450149483434
7	11	10	13.391487500134
7	12	11	13.949883621705
7	13	12	13.87602620427
7	14	13	13.885232782268
7	15	14	13.987373048679
7	16	15	13.890608048609
7	17	16	13.887004709987
7	18	17	13.926980708602
7	19	18	13.89086526999
7	20	19	13.965056618985
7	21	20	13.946692067499
7	22	21	13.097137451398
7	23	22	11.939132677032
7	24	23	7.4783001788439
7	25	24	7.8592269216425
7	26	25	9.5749213322898
7	27	26	11.610942506126
7	28	27	13.581243869506
7	29	28	13.973211987913
7	30	29	13.918392209036
7	31	30	13.928662607018
7	32	31	13.985277111761
7	33	32	13.95532245066
7	34	33	13.938708755139
7	35	34	13.908545650935
7	36	35	13.927478809105
7	37	36	13.897819017794
7	38	37	13.989504252097
7	39	38	13.94374062394
7	40	39	13.903882643976
7	41	40	13.969130632835
7	42	41	13.884234787642
7	43	42	13.881978327318
7	44	43	13.927070145076
7	45	44	13.922745489741
7	46	45	13.95273740395
7	47	46	13.968270483359
7	48	47	13.918685564972
7	49	48	13.921468284922
7	50	49	13.897015957548
7	51	50	13.964752228069
7	52	51	13.91147568828
7	53	52	13.974545761354
7	54	53	13.965476403411
7	55	54	13.989670229855
7	56	55	13.951804798429
7	57	56	13.892850009208
7	58	57	13.958218119799
7	59	58	13.933717581006
7	60	59	13.982012811573
7	61	60	13.954506225567
7	62	61	13.954468280503
7	63	62	13.914126337939
7	64	63	13.998578815588
7	65	64	13.932968401979
7	66	65	13.954534002345
7	67	66	13.957377178506
7	68	67	13.932528918332
7	69	68	13.977439161665
7	70	69	13.873707558191
7	71	70	13.945779315263
7	72	71	13.942668949808
7	73	72	13.91575948562
7	74	73	13.907857767178
8	7	6	1.7932460927567
8	8	7	1.9587017235276
8	9	8	1.7806746143266
8	10	9	1.8842620940111
8	11	10	1.9413380167005
8	12	11	0.5583961215709
8	13	12	-0.073857417434921
8	14	13	0.0092065779981212
8	15	14	0.10214026641101
8	16	15	-0.096765000070445
8	17	16	-0.0036033386224883
8	18	17	0.039975998615846
8	19	18	-0.036115438612178
8	20	19	0.074191348995083
8	21	20	-0.018364551486448
8	22	21	-0.84955461610103
8	23	22	-1.1580047743662
8	24	23	-4.4608324981877
8	25	24	0.38092674279862
8	26	25	1.7156944106473
8	27	26	2.0360211738362
8	28	27	1.9703013633797
8	29	28	0.39196811840698
8	30	29	-0.054819778876846
8	31	30	0.010270397982096
8	32	31	0.056614504742901
8	33	32	-0.029954661100637
8	34	33	-0.016613695521373
8	35	34	-0.030163104203529
8	36	35	0.018933158169965
8	37	36	-0.029659791311714
8	38	37	0.091685234303586
8	39	38	-0.045763628156855
8	40	39	-0.039857979963999
8	41	40	0.065247988859191
8	42	41	-0.08489584519295
8	43	42	-0.0022564603248618
8	44	43	0.045091817758511
8	45	44	-0.0043246553349299
8	46	45	0.029991914208512
8	47	46	0.015533079409506
8	48	47	-0.0495849183877
8	49	48	0.0027827199501917
8	50	49	-0.024452327373437
8	51	50	0.067736270520836
8	52	51	-0.053276539789513
8	53	52	0.063070073074195
8	54	53	-0.0090693579427903
8	55	54	0.024193826443517
8	56	55	-0.037865431425162
8	57	56	-0.058954789221753
8	58	57	0.065368110591081
8	59	58	-0.024500538792926
8	60	59	0.048295230567454
8	61	60	-0.027506586005911
8	62	61	-3.7945064249811e-05
8	63	62	-0.040341942564119
8	64	63	0.08445247764932
8	65	64	-0.065610413609539
8	66	65	0.021565600365866
8	67	66	0.0028431761614058
8	68	67	-0.024848260174041
8	69	68	0.044910243332852
8	70	69	-0.10373160347343
8	71	70	0.072071757072118
8	72	71	-0.0031103654555054
8	73	72	-0.02690946418792
8	74	73	-0.0079017184418628
9	7	6	3.9274001426868
9	8	7	5.2041356246368
9	9	8	5.7574507674447
9	10	9	7.0006276784153
9	11	10	8.2432295261252
9	12	11	3.9110016848773
9	13	12	1.7792042638201
9	14	13	2.0579365757541
9	15	14	2.3818636967155
9	16	15	1.7037407999188
9	17	16	2.0152488537881
9	18	17	2.1655550639215
9	19	18	1.906797412239
9	20	19	2.2849654495652
9	21	20	1.9716653983805
9	22	21	0.973
9	23	22	0.973
9	24	23	0.973
9	25	24	2.2554772362628
9	26	25	5.6120472675651
9	27	26	7.5119842129131
9	28	27	8.4455276517466
9	29	28	3.3560730035355
9	30	29	1.8466200733259
9	31	30	2.0660268329645
9	32	31	2.2281549844786
9	33	32	1.9335288120447
9	34	33	1.9767670407741
9	35	34	1.9283950769156
9	36	35	2.0949799016024
9	37	36	1.9290667558988
9	38	37	2.3468857079218
9	39	38	1.8793040227889
9	40	39	1.8954681876561
9	41	40	2.2553467174174
9	42	41	1.7429567241042
9	43	42	2.0192482635441
9	44	43	2.1827359052182
9	45	44	2.0164367628106
9	46	45	2.1348602115454
9	47	46	2.0878872407227
9	48	47	1.8642059318509
9	49	48	2.0401536442479
9	50	49	1.9464315106901
9	51	50	2.2632042711189
9	52	51	1.851180617826
9	53	52	2.2486511283506
9	54	53	2.0047870143605
9	55	54	2.1193583924862
9	56	55	1.9065956504161
9	57	56	1.8305118457369
9	58	57	2.2544630998412
9	59	58	1.9497933768092
9	60	59	2.199742909699
9	61	60	1.9416842431598
9	62	61	2.0340583936544
9	63	62	1.8947902862501
9	64	63	2.3236156337703
9	65	64	1.8116807487081
9	66	65	2.1067187558746
9	67	66	2.0440470145686
9	68	67	1.9485115452067
9	69	68	2.1878187851485
9	70	69	1.6791237400594
9	71	70	2.2755265645048
9	72	71	2.0225291815531
9	73	72	1.9399893034582
9	74	73	2.0029455902709
10	8	7	2414.8848622198
10	9	8	2412.0691307599
10	10	9	2407.3819784434
10	11	10	2402.4639103656
10	12	11	2396.2016479742
10	13	12	2388.5021761758
10	14	13	2379.5347220144
10	15	14	2369.7521497252
10	16	15	2359.9648396304
10	17	16	2350.1637192596
10	18	17	2340.717056727
10	19	18	2334.4889366638
10	20	19	2338.0188398167
10	21	20	2348.6970945761
10	22	21	2359.0578910074
10	23	22	2372.1753142256
10	24	23	2385.9847009928
10	25	24	2399.0560799135
10	26	25	2411.469456295
10	27	26	2420.8240344936
10	28	27	2428.2511095385
10	29	28	2431.5096723901
10	30	29	2433.2168502312
10	31	30	2435.2011956087
10	32	31	2437.29147981
10	33	32	2438.672857787
10	34	33	2439.5458305131
10	35	34	2440.5569901068
10	36	35	2441.5662171456
10	37	36	2442.5764760413
10	38	37	2443.5864360537
10	39	38	2444.5969193554
10	40	39	2445.6077267987
10	41	40	2446.6171177449
10	42	41	2447.6285385494
10	43	42	2448.6389437378
10	44	43	2449.6489775468
10	45	44	2450.659299592
10	46	45	2449.5461587089
10	47	46	2448.4337074455
10	48	47	2447.3207898499
10	49	48	2446.207873206
10	50	49	2445.0940501215
10	51	50	2443.9833638043
10	52	51	2442.8694501355
10	53	52	2441.7571938549
10	54	53	2440.6460889142
10	55	54	2439.6824932018
10	56	55	2438.741084579
10	57	56	2437.8178922307
10	58	57	2432.628875918
10	59	58	2422.099758557
10	60	59	2408.9617932498
10	61	60	2395.0275024913
10	62	61	2381.1194986589
10	63	62	2367.2108877165
10	64	63	2353.2913366285
10	65	64	2339.3363710896
10	66	65	2325.3913249692
10	67	66	2311.4476897647
10	68	67	2297.4983647275
10	69	68	2283.5801531249
10	70	69	2269.6389171832
10	71	70	2255.7127677456
10	72	71	2241.8359768615
10	73	72	2228.0496562888
10	74	73	2214.3204117303
11	8	7	1578.4476927174
11	9	8	1579.4816146148
11	10	9	1581.3305685576
11	11	10	1586.311893981
11	12	11	1592.6547030602
11	13	12	1600.4532072712
11	14	13	1609.5360029312
11	15	14	1619.4444009606
11	16	15	1629.3575977338
11	17	16	1639.2847824143
11	18	17	1649.4765304932
11	19	18	1661.4854336744
11	20	19	1673.8446300924
11	21	20	1682.7957309801
11	22	21	1692.1393567109
11	23	22	1695.6439150097
11	24	23	1697.4374776948
11	25	24	1698.6863156371
11	26	25	1699.860083269
11	27	26	1700.7446211064
11	28	27	1701.4003788568
11	29	28	1709.757081449
11	30	29	1720.9911797
11	31	30	1734.0491812732
11	32	31	1747.8043141738
11	33	32	1761.6824669717
11	34	33	1775.5982529195
11	35	34	1789.5036912933
11	36	35	1803.3825532272
11	37	36	1817.2756052278
11	38	37	1831.1645469936
11	39	38	1845.0606850199
11	40	39	1858.9612806309
11	41	40	1872.8423966132
11	42	41	1886.7514271513
11	43	42	1900.646490965
11	44	43	1914.536447579
11	45	44	1928.4487420022
11	46	45	1942.3421864314
11	47	46	1956.2270235084
11	48	47	1970.117681019
11	49	48	1984.0083266487
11	50	49	1997.9102858361
11	51	50	2011.7730940934
11	52	51	2025.6761838896
11	53	52	2039.5585873295
11	54	53	2053.4266205495
11	55	54	2067.3284383547
11	56	55	2081.2374921273
11	57	56	2095.1151711773
11	58	57	2107.8121583294
11	59	58	2116.6019557538
11	60	59	2120.9589145361
11	61	60	2120.4882719275
11	62	61	2120.0185171831
11	63	62	2119.548741932
11	64	63	2119.0785971684
11	65	64	2118.6072562514
11	66	65	2118.1362503711
11	67	66	2117.6652921457
11	68	67	2117.1941417418
11	69	68	2116.724042221
11	70	69	2116.2531650327
11	71	70	2115.7827974036
11	72	71	2114.7194869779
11	73	72	2112.7644801643
11	74	73	2110.4801872596
12	9	8	3.930963162637
12	10	9	5.9263112237273
12	11	10	7.8381960794392
12	12	11	9.790430662247
12	13	12	11.728100012452
12	14	13	13.629514704516
12	15	14	13.941568216505
12	16	15	13.881279769889
12	17	16	13.897868440901
12	18	17	13.925429278756
12	19	18	13.988464023101
12	20	19	13.968606978769
12	21	20	13.918509052745
12	22	21	13.924308654484
12	23	22	13.951645852409
12	24	23	13.87926841794
12	25	24	12.793519969494
12	26	25	11.84351296104
12	27	26	7.4038563960913
12	28	27	8.4727548549238
12	29	28	10.367830629347
12	30	29	12.18869854925
12	31	30	13.961659159465
12	32	31	13.954832898835
12	33	32	13.985199820679
12	34	33	13.894128147855
12	35	34	13.93747920732
12	36	35	13.922516686122
12	37	36	13.936551663636
12	38	37	13.899921349036
12	39	38	13.905686459227
12	40	39	13.974518650502
12	41	40	13.926188751743
12	42	41	13.91506882193
12	43	42	13.902084701743
12	44	43	13.906688486487
12	45	44	13.974945872892
12	46	45	13.897515056985
12	47	46	13.921723058985
12	48	47	13.971591069859
12	49	48	13.925448836959
12	50	49	13.871581884674
12	51	50	13.876423048137
12	52	51	13.873938687814
12	53	52	13.902598275633
12	54	53	13.87539361449
12	55	54	13.972987024514
12	56	55	13.957628285089
12	57	56	13.950985880545
12	58	57	13.943263569523
12	59	58	13.891897078918
12	60	59	13.874182712052
12	61	60	13.982985400616
12	62	61	13.927164004399
12	63	62	13.899862960158
12	64	63	13.960168966714
12	65	64	13.961850514959
12	66	65	13.962242161995
12	67	66	13.925234322341
12	68	67	13.991972472956
12	69	68	13.975208927125
12	70	69	13.946616810667
12	71	70	13.894927249895
12	72	71	13.997537077854
12	73	72	13.937148143742
12	74	73	13.949254455173
13	10	9	1.9953480610903
13	11	10	1.9118848557118
13	12	11	1.9522345828079
13	13	12	1.9376693502045
13	14	13	1.9014146920643
13	15	14	0.31205351198868
13	16	15	-0.060288446615449
13	17	16	0.016588671011849
13	18	17	0.027560837855562
13	19	18	0.063034744344186
13	20	19	-0.019857044331729
13	21	20	-0.050097926023881
13	22	21	0.0057996017392714
13	23	22	0.027337197924499
13	24	23	-0.072377434468363
13	25	24	-1.0857484484466
13	26	25	-0.95000700845353
13	27	26	-4.439656564949
13	28	27	1.0688984588324
13	29	28	1.8950757744233
13	30	29	1.8208679199032
13	31	30	1.7729606102145
13	32	31	-0.0068262606300422
13	33	32	0.03036692184396
13	34	33	-0.091071672823745
13	35	34	0.043351059465204
13	36	35	-0.01496252119774
13	37	36	0.014034977513365
13	38	37	-0.036630314600188
13	39	38	0.0057651101914225
13	40	39	0.068832191275433
13	41	40	-0.048329898759256
13	42	41	-0.01111992981285
13	43	42	-0.012984120186884
13	44	43	0.0046037847432316
13	45	44	0.068257386405021
13	46	45	-0.077430815906265
13	47	46	0.02420800199965
13	48	47	0.049868010873906
13	49	48	-0.046142232900019
13	50	49	-0.053866952285171
13	51	50	0.0048411634634249
13	52	51	-0.0024843603232867
13	53	52	0.028659587819128
13	54	53	-0.027204661143477
13	55	54	0.09759341002442
13	56	55	-0.015358739425428
13	57	56	-0.0066424045432356
13	58	57	-0.007722311022226
13	59	58	-0.051366490605288
13	60	59	-0.017714366866276
13	61	60	0.10880268856417
13	62	61	-0.055821396217215
13	63	62	-0.027301044240593
13	64	63	0.06030600655591
13	65	64	0.0016815482452515
13	66	65	0.00039164703572148
13	67	66	-0.037007839654107
13	68	67	0.066738150615711
13	69	68	-0.0167635458312
13	70	69	-0.028592116457874
13	71	70	-0.051689560771921
13	72	71	0.10260982795851
13	73	72	-0.060388934111689
13	74	73	0.01210631143069
14	10	9	4.2649508166984
14	11	10	5.1441608835298
14	12	11	6.2752675611406
14	13	12	7.3015557220543
14	14	13	8.2469806235914
14	15	14	3.0813423760871
14	16	15	1.825038103975
14	17	16	2.0839753981971
14	18	17	2.1237162576214
14	19	18	2.2501690272635
14	20	19	1.9687844028223
14	21	20	1.8624692368163
14	22	21	2.0505690853877
14	23	22	2.1258147014109
14	24	23	1.7844264067381
14	25	24	0.973
14	26	25	0.973
14	27	26	0.973
14	28	27	3.7575341079103
14	29	28	6.4482222684255
14	30	29	7.2140195323343
14	31	30	8.0005078452345
14	32	31	2.0112657729674
14	33	32	2.1396802881933
14	34	33	1.7230808185304
14	35	34	2.1780640158967
14	36	35	1.980720158986
14	37	36	2.0794954629949
14	38	37	1.9059152732614
14	39	38	2.0485298427513
14	40	39	2.2680539427787
14	41	40	1.8690933945628
14	42	41	1.9928741031296
14	43	42	1.9853406570184
14	44	43	2.0447410785649
14	45	44	2.2661688405632
14	46	45	1.7690384486571
14	47	46	2.1120645090544
14	48	47	2.2038504354464
14	49	48	1.8763684319447
14	50	49	1.8456610488087
14	51	50	2.0424227277346
14	52	51	2.0176736696174
14	53	52	2.1249196677245
14	54	53	1.9351566644326
14	55	54	2.3647248781457
14	56	55	1.9828454643184
14	57	56	2.0114971183472
14	58	57	2.007091813677
14	59	58	1.8558336695686
14	60	59	1.9667740746073
14	61	60	2.4037578966905
14	62	61	1.844036691971
14	63	62	1.9371616602798
14	64	63	2.2376623461065
14	65	64	2.0405988072341
14	66	65	2.0362986285583
14	67	66	1.9070037954822
14	68	67	2.2630700095878
14	69	68	1.9798474403324
14	70	69	1.9372818212763
14	71	70	1.8550225742329
14	72	71	2.3847397299678
14	73	72	1.8295794064806
14	74	73	2.0743518631084
15	11	10	2414.8652957816
15	12	11	2411.9402292009
15	13	12	2407.1594214574
15	14	13	2402.0350675649
15	15	14	2395.5354035812
15	16	15	2387.5598131203
15	17	16	2378.2983909701
15	18	17	2368.4972038758
15	19	18	2358.719633554
15	20	19	2348.9248444787
15	21	20	2339.614370346
15	22	21	2334.1997176057
15	23	22	2339.4193692133
15	24	23	2350.023330241
15	25	24	2360.3662725991
15	26	25	2373.90233667
15	27	26	2387.7152259793
15	28	27	2400.5914429313
15	29	28	2412.9398871803
15	30	29	2421.7139854309
15	31	30	2429.0882121673
15	32	31	2431.6639768599
15	33	32	2433.4302155024
15	34	33	2435.4611475593
15	35	34	2437.5533698815
15	36	35	2438.7684759141
15	37	36	2439.671540139
15	38	37	2440.6813741141
15	39	38	2441.6917844916
15	40	39	2442.7022041357
15	41	40	2443.7124593587
15	42	41	2444.7229332504
15	43	42	2445.7337078364
15	44	43	2446.7459111849
15	45	44	2447.757486716
15	46	45	2448.7683903823
15	47	46	2449.7777371067
15	48	47	2450.5176811377
15	49	48	2449.4057673637
15	50	49	2448.2921364765
15	51	50	2447.1808208324
15	52	51	2446.0691226661
15	53	52	2444.9566500478
15	54	53	2443.8447802094
15	55	54	2442.731477023
15	56	55	2441.6197022425
15	57	56	2440.5080080784
15	58	57	2439.5670555097
15	59	58	2438.6556009268
15	60	59	2437.5062560235
15	61	60	2431.5722499692
15	62	61	2420.527699944
15	63	62	2407.2382113171
15	64	63	2393.3269784888
15	65	64	2379.3955530388
15	66	65	2365.4745847809
15	67	66	2351.529199079
15	68	67	2337.6079130118
15	69	68	2323.6725767179
15	70	69	2309.7385225614
15	71	70	2295.8080973643
15	72	71	2281.8952010303
15	73	72	2267.9654732505
15	74	73	2254.0466482575
16	11	10	1578.4548774119
16	12	11	1579.5289465943
16	13	12	1581.5559881236
16	14	13	1586.7462526578
16	15	14	1593.3295168448
16	16	15	1601.4076912217
16	17	16	1610.7882359559
16	18	17	1620.7154882178
16	19	18	1630.6188199436
16	20	19	1640.5395918936
16	21	20	1650.8881406859
16	22	21	1663.2272230769
16	23	22	1674.9756418047
16	24	23	1683.991763521
16	25	24	1693.3192880014
16	26	25	1695.9020503219
16	27	26	1697.6139621651
16	28	27	1698.8314944636
16	29	28	1699.9991223291
16	30	29	1700.8287719106
16	31	30	1701.8119543158
16	32	31	1710.77248332
16	33	32	1722.3952316754
16	34	33	1735.7597972872
16	35	34	1749.5276840087
16	36	35	1763.4065813264
16	37	36	1777.3270081691
16	38	37	1791.2142166747
16	39	38	1805.1093518483
16	40	39	1819.0046144547
16	41	40	1832.8976159496
16	42	41	1846.7936245678
16	43	42	1860.6937683271
16	44	43	1874.6135603888
16	45	44	1888.5247187214
16	46	45	1902.4266375881
16	47	46	1916.3071454344
16	48	47	1930.2163243052
16	49	48	1944.0944528161
16	50	49	1957.9940131316
16	51	50	1971.8646762054
16	52	51	1985.7401136523
16	53	52	1999.6252172682
16	54	53	2013.5027974071
16	55	54	2027.3982675895
16	56	55	2041.2746612821
16	57	56	2055.1500487765
16	58	57	2069.0339985425
16	59	58	2082.9232102502
16	60	59	2096.7668430749
16	61	60	2109.1502521159
16	62	61	2117.3046830418
16	63	62	2120.90069908
16	64	63	2120.4308352731
16	65	64	2119.9602894429
16	66	65	2119.4900968131
16	67	66	2119.0190794626
16	68	67	2118.5488760993
16	69	68	2118.0781981768
16	70	69	2117.6075635599
16	71	70	2117.1370515134
16	72	71	2116.6671315199
16	73	72	2116.1966430303
16	74	73	2115.7265227912
17	12	11	4.0076977833542
17	13	12	6.1677344774264
17	14	13	8.1549676716625
17	15	14	10.178332106699
17	16	15	12.262859039094
17	17	16	13.909239285488
17	18	17	13.972104677679
17	19	18	13.964405047395
17	20	19	13.904001857305
17	21	20	13.959390929798
17	22	21	13.878038117993
17	23	22	13.946876353603
17	24	23	13.944667257406
17	25	24	13.919344021892
17	26	25	13.927560248445
17	27	26	13.871213583788
17	28	27	12.691334807668
17	29	28	11.253789109264
17	30	29	6.8021452137647
17	31	30	8.5806848426844
17	32	31	10.511503565412
17	33	32	12.634297992723
17	34	33	13.965718502484
17	35	34	13.984844662666
17	36	35	13.956789441942
17	37	36	13.956542154332
17	38	37	13.917345386401
17	39	38	13.978046209081
17	40	39	13.982312166321
17	41	40	13.915473192113
17	42	41	13.879970237834
17	43	42	13.897895857247
17	44	43	13.999869057706
17	45	44	13.978634591533
17	46	45	13.942230677728
17	47	46	13.955766034983
17	48	47	13.950300372976
17	49	48	13.917481608128
17	50	49	13.942320762996
17	51	50	13.893100212866
17	52	51	13.91633811252
17	53	52	13.928179549885
17	54	53	13.968941585214
17	55	54	13.947614409933
17	56	55	13.993828555658
17	57	56	13.915365449623
17	58	57	13.876728287677
17	59	58	13.918426910553
17	60	59	13.974088552413
17	61	60	13.92781890474
17	62	61	13.871840020602
17	63	62	13.950818891171
17	64	63	13.896373478309
17	65	64	13.98123223257
17	66	65	13.934642261642
17	67	66	13.995758003502
17	68	67	13.879077432866
17	69	68	13.899420192223
17	70	69	13.964884717481
17	71	70	13.997399434138
17	72	71	13.963054893557
17	73	72	13.99507131309
17	74	73	13.959758597296
18	13	12	2.1600366940722
18	14	13	1.9872331942362
18	15	14	2.0233644350362
18	16	15	2.0845269323955
18	17	16	1.6463802463939
18	18	17	0.062865392190869
18	19	18	-0.0076996302837493
18	20	19	-0.060403190089856
18	21	20	0.055389072492252
18	22	21	-0.081352811804972
18	23	22	0.068838235610166
18	24	23	-0.0022090961970385
18	25	24	-0.025323235513643
18	26	25	0.0082162265526122
18	27	26	-0.056346664656886
18	28	27	-1.1798787761197
18	29	28	-1.4375456984038
18	30	29	-4.4516438954996
18	31	30	1.7785396289197
18	32	31	1.9308187227277
18	33	32	2.1227944273106
18	34	33	1.3314205097611
18	35	34	0.01912616018206
18	36	35	-0.028055220723617
18	37	36	-0.00024728761054682
18	38	37	-0.039196767930406
18	39	38	0.060700822679792
18	40	39	0.0042659572395483
18	41	40	-0.06683897420764
18	42	41	-0.035502954279073
18	43	42	0.017925619413145
18	44	43	0.10197320045903
18	45	44	-0.021234466172753
18	46	45	-0.036403913805263
18	47	46	0.013535357255023
18	48	47	-0.0054656620067544
18	49	48	-0.032818764848635
18	50	49	0.024839154868388
18	51	50	-0.049220550130123
18	52	51	0.023237899653614
18	53	52	0.011841437364929
18	54	53	0.040762035329827
18	55	54	-0.021327175281478
18	56	55	0.046214145724662
18	57	56	-0.078463106034324
18	58	57	-0.038637161946388
18	59	58	0.041698622875845
18	60	59	0.055661641859915
18	61	60	-0.046269647672306
18	62	61	-0.055978884138167
18	63	62	0.078978870569262
18	64	63	-0.054445412862115
18	65	64	0.084858754260932
18	66	65	-0.046589970928617
18	67	66	0.061115741860121
18	68	67	-0.11668057063594
18	69	68	0.0203427593573
18	70	69	0.065464525257703
18	71	70	0.032514716656879
18	72	71	-0.034344540580641
18	73	72	0.032016419533175
18	74	73	-0.035312715794426
19	13	12	4.6399364442395
19	14	13	5.459099048015
19	15	14	6.6616810382017
19	16	15	8.0324172249288
19	17	16	7.5484463594625
19	18	17	2.247674957111
19	19	18	2.0092894812461
19	20	19	1.8266349661585
19	21	20	2.2210298717235
19	22	21	1.7543037306746
19	23	22	2.264789170887
19	24	23	2.0257606197441
19	25	24	1.9456524984792
19	26	25	2.059016748537
19	27	26	1.8373388380236
19	28	27	0.973
19	29	28	0.973
19	30	29	0.973
19	31	30	5.2602175796137
19	32	31	6.6156566027659
19	33	32	8.3694083781091
19	34	33	6.5165491496521
19	35	34	2.1017560319966
19	36	35	1.9400571066544
19	37	36	2.0335662245147
19	38	37	1.8989280401226
19	39	38	2.2410813776431
19	40	39	2.0514099723484
19	41	40	1.8060532207838
19	42	41	1.9078333116417
19	43	42	2.0884562634303
19	44	43	2.3828885778754
19	45	44	1.9651224554136
19	46	45	1.910615850939
19	47	46	2.0798426520326
19	48	47	2.015384407742
19	49	48	1.9203331804895
19	50	49	2.1164070517746
19	51	50	1.8631262853673
19	52	51	2.108230627045
19	53	52	2.0712498573739
19	54	53	2.1728920736305
19	55	54	1.9617970432444
19	56	55	2.1940726512002
19	57	56	1.7670612526642
19	58	57	1.8970499029483
19	59	58	2.1703787731
19	60	59	2.2236475952785
19	61	60	1.876156120652
19	62	61	1.8386234882413
19	63	62	2.2993516664104
19	64	63	1.8459222947006
19	65	64	2.3228538313892
19	66	65	1.8757004712267
19	67	66	2.2445546956586
19	68	67	1.6362226447506
19	69	68	2.096714827559
19	70	69	2.2555743425322
19	71	70	2.1482652379368
19	72	71	1.9194912088098
19	73	72	2.1463276308042
19	74	73	1.9159241804067
20	14	13	2414.9020294819
20	15	14	2411.9226306152
20	16	15	2407.1557433844
20	17	16	2402.1104710221
20	18	17	2395.7699587477
20	19	18	2388.0304223568
20	20	19	2379.4738079484
20	21	20	2370.893774931
20	22	21	2362.3077945379
20	23	22	2353.7435980395
20	24	23	2345.1609503828
20	25	24	2337.382531011
20	26	25	2333.9513923901
20	27	26	2339.5342791209
20	28	27	2348.8453277851
20	29	28	2357.9087556405
20	30	29	2368.8976739903
20	31	30	2380.9775286298
20	32	31	2393.1030453129
20	33	32	2405.2335576123
20	34	33	2416.5418459401
20	35	34	2423.9663700609
20	36	35	2430.570008137
20	37	36	2432.1000471369
20	38	37	2433.9002697327
20	39	38	2435.9543662666
20	40	39	2437.9596728822
20	41	40	2438.9494181712
20	42	41	2439.9070256213
20	43	42	2440.9176562928
20	44	43	2441.9269052453
20	45	44	2442.9366141059
20	46	45	2443.9464281293
20	47	46	2444.9573541252
20	48	47	2445.9691156872
20	49	48	2446.979716951
20	50	49	2447.9896090399
20	51	50	2448.9998733379
20	52	51	2450.0085675253
20	53	52	2450.2645866362
20	54	53	2449.1499465979
20	55	54	2448.0369973981
20	56	55	2446.9233345203
20	57	56	2445.8120863364
20	58	57	2444.7009855164
20	59	58	2443.5879624323
20	60	59	2442.4739204658
20	61	60	2441.3600381962
20	62	61	2440.2864050268
20	63	62	2439.3445139695
20	64	63	2438.5901630576
20	65	64	2436.8932832642
20	66	65	2429.488703159
20	67	66	2417.5025738811
20	68	67	2403.9129781366
20	69	68	2389.9861979192
20	70	69	2376.0739265668
20	71	70	2362.1500415469
20	72	71	2348.2060115275
20	73	72	2334.2734054149
20	74	73	2320.3213743683
21	14	13	1578.4413889889
21	15	14	1579.5354087027
21	16	15	1581.5597135043
21	17	16	1586.6698793434
21	18	17	1593.0919447746
21	19	18	1600.9310288979
21	20	19	1609.5977004888
21	21	20	1618.2880919036
21	22	21	1626.984507191
21	23	22	1635.6588583943
21	24	23	1644.3518980779
21	25	24	1653.7452424029
21	26	25	1665.1186078088
21	27	26	1675.0684384657
21	28	27	1682.929411401
21	29	28	1691.1030376544
21	30	29	1695.1540113101
21	31	30	1696.8415124407
21	32	31	1698.123416462
21	33	32	1699.2704374064
21	34	33	1700.3397115832
21	35	34	1700.9751795586
21	36	35	1703.8619754324
21	37	36	1713.6420474732
21	38	37	1725.4884275207
21	39	38	1739.0054271705
21	40	39	1752.7795728892
21	41	40	1766.6691963989
21	42	41	1780.5653979182
21	43	42	1794.4635625677
21	44	43	1808.342725859
21	45	44	1822.2282137927
21	46	45	1836.1151479203
21	47	46	1850.0173738636
21	48	47	1863.9310904881
21	49	48	1877.8288507257
21	50	49	1891.7168584093
21	51	50	1905.6099847034
21	52	51	1919.4815188777
21	53	52	1933.3752725068
21	54	53	1947.287428339
21	55	54	1961.1784803104
21	56	55	1975.07843991
21	57	56	1988.9482609928
21	58	57	2002.8162427824
21	59	58	2016.7082169261
21	60	59	2030.6129080458
21	61	60	2044.5156059386
21	62	61	2058.405807049
21	63	62	2072.3219886608
21	64	63	2086.2172475774
21	65	64	2100.0155986995
21	66	65	2111.7128415443
21	67	66	2118.6569472738
21	68	67	2120.7883864809
21	69	68	2120.3179975469
21	70	69	2119.8480986627
21	71	70	2119.3778075166
21	72	71	2118.9068359565
21	73	72	2118.436250248
21	74	73	2117.965008446
22	15	14	4.1202440707026
22	16	15	6.098204819389
22	17	16	7.9892263333931
22	18	17	9.9395148638858
22	19	18	11.888312638128
22	20	19	12.215156767303
22	21	20	12.204687935296
22	22	21	12.224623291104
22	23	22	12.210776680999
22	24	23	12.179672799767
22	25	24	12.160016026092
22	26	25	12.139849843977
22	27	26	12.143721937142
22	28	27	12.197962211408
22	29	28	12.182525644068
22	30	29	12.239106989266
22	31	30	12.235862109773
22	32	31	12.230306803957
22	33	32	12.179537976573
22	34	33	9.6862829881538
22	35	34	6.6424673210172
22	36	35	8.8478549035121
22	37	36	10.859035527671
22	38	37	12.909402498856
22	39	38	13.992245385351
22	40	39	13.943547738914
22	41	40	13.916770352069
22	42	41	13.945535122917
22	43	42	13.906703865982
22	44	43	13.929781103753
22	45	44	13.945612282939
22	46	45	13.915959525181
22	47	46	13.967522231955
22	48	47	13.972525620006
22	49	48	13.883536923684
22	50	49	13.909812615521
22	51	50	13.926507747294
22	52	51	13.897951097498
22	53	52	13.93396450304
22	54	53	13.967009024217
22	55	54	13.893721483571
22	56	55	13.88568516843
22	57	56	13.927406547926
22	58	57	13.918185825639
22	59	58	13.942741125419
22	60	59	13.888825567171
22	61	60	13.956811681101
22	62	61	13.967852384013
22	63	62	13.917130999181
22	64	63	13.962056111419
22	65	64	13.973261172024
22	66	65	13.976665152721
22	67	66	13.929094264333
22	68	67	13.988442988638
22	69	68	13.963501574658
22	70	69	13.904512311171
22	71	70	13.881385968712
22	72	71	13.955823229789
22	73	72	13.91319160128
22	74	73	13.978148939102
23	16	15	1.9779607486865
23	17	16	1.8910215140041
23	18	17	1.9502885304927
23	19	18	1.9487977742427
23	20	19	0.32684412917498
23	21	20	-0.010468832007609
23	22	21	0.019935355808121
23	23	22	-0.013846610104666
23	24	23	-0.031103881231974
23	25	24	-0.019656773675234
23	26	25	-0.020166182115208
23	27	26	0.0038720931648282
23	28	27	0.054240274266339
23	29	28	-0.015436567340512
23	30	29	0.056581345198211
23	31	30	-0.0032448794925592
23	32	31	-0.0055553058162339
23	33	32	-0.050768827383871
23	34	33	-2.4932549884193
23	35	34	-3.0438156671366
23	36	35	2.2053875824949
23	37	36	2.0111806241586
23	38	37	2.0503669711854
23	39	38	1.082842886495
23	40	39	-0.048697646437214
23	41	40	-0.026777386844623
23	42	41	0.028764770848211
23	43	42	-0.038831256935373
23	44	43	0.023077237771357
23	45	44	0.015831179185771
23	46	45	-0.02965275775874
23	47	46	0.051562706774567
23	48	47	0.0050033880514082
23	49	48	-0.088988696322776
23	50	49	0.026275691837073
23	51	50	0.016695131773595
23	52	51	-0.028556649796665
23	53	52	0.036013405541889
23	54	53	0.033044521177652
23	55	54	-0.07328754064627
23	56	55	-0.0080363151407798
23	57	56	0.041721379496158
23	58	57	-0.009220722287429
23	59	58	0.024555299780332
23	60	59	-0.053915558247827
23	61	60	0.067986113929656
23	62	61	0.01104070291156
23	63	62	-0.050721384831705
23	64	63	0.044925112237689
23	65	64	0.011205060605425
23	66	65	0.0034039806970405
23	67	66	-0.047570888388437
23	68	67	0.059348724305165
23	69	68	-0.024941413979978
23	70	69	-0.058989263486584
23	71	70	-0.023126342459582
23	72	71	0.07443726107711
23	73	72	-0.042631628508678
23	74	73	0.064957337821832
24	16	15	4.3320714987557
24	17	16	5.183486961616
24	18	17	6.3519610936481
24	19	18	7.4221751260776
24	20	19	2.8298121443499
24	21	20	1.8359013100526
24	22	21	1.9272118037584
24	23	22	1.8264910266966
24	24	23	1.7731570813911
24	25	24	1.8050958468359
24	26	25	1.8019031629654
24	27	26	1.8725806391293
24	28	27	2.0255422754474
24	29	28	1.8193896864997
24	30	29	2.0366725650512
24	31	30	1.8599189826534
24	32	31	1.8526149529095
24	33	32	1.7154241454235
24	34	33	0.973
24	35	34	0.973
24	36	35	6.303427561984
24	37	36	7.0154445701984
24	38	37	8.3105242583869
24	39	38	5.6895407911334
24	40	39	1.8694269918782
24	41	40	1.940528745875
24	42	41	2.1299480592744
24	43	42	1.8991694406835
24	44	43	2.1091372507868
24	45	44	2.0864880630902
24	46	45	1.9308080812489
24	47	46	2.2090898398184
24	48	47	2.0528811368149
24	49	48	1.7292056532406
24	50	49	2.1177127068995
24	51	50	2.0873649665686
24	52	51	1.9327741224938
24	53	52	2.1530281120875
24	54	53	2.1466978352857
24	55	54	1.7825965253946
24	56	55	2.0002810933209
24	57	56	2.1714609797662
24	58	57	1.999553894506
24	59	58	2.1154986829051
24	60	59	1.8470270282863
24	61	60	2.2631030576132
24	62	61	2.0727204260443
24	63	62	1.8602543209442
24	64	63	2.1861282607859
24	65	64	2.0738417857687
24	66	65	2.0479224526271
24	67	66	1.8719038420292
24	68	67	2.237740187174
24	69	68	1.9511766336835
24	70	69	1.8314175593046
24	71	70	1.9493699794006
24	72	71	2.2846833100323
24	73	72	1.8870266347629
24	74	73	2.2554324657204
25	17	16	2414.866372544
25	18	17	2411.9174920589
25	19	18	2407.1873548935
25	20	19	2402.1033929951
25	21	20	2395.6770685576
25	22	21	2387.9239549194
25	23	22	2378.7440047435
25	24	23	2368.9560721758
25	25	24	2359.1622850237
25	26	25	2349.3790714815
25	27	26	2340.0066479368
25	28	27	2334.2982135796
25	29	28	2338.9199148722
25	30	29	2349.5394145362
25	31	30	2359.6285321664
25	32	31	2372.2737052037
25	33	32	2385.1868441795
25	34	33	2397.5486702835
25	35	34	2407.0889696613
25	36	35	2415.9658388555
25	37	36	2423.647086352
25	38	37	2430.5697055
25	39	38	2432.1309365664
25	40	39	2433.9420996767
25	41	40	2436.0121670167
25	42	41	2438.0026650226
25	43	42	2438.973087457
25	44	43	2439.9357083738
25	45	44	2440.9457836029
25	46	45	2441.9557050534
25	47	46	2442.966328533
25	48	47	2443.9770825638
25	49	48	2444.9875938372
25	50	49	2445.9973880129
25	51	50	2447.0079984484
25	52	51	2448.0195114657
25	53	52	2449.0300190145
25	54	53	2450.0409876643
25	55	54	2450.2291497608
25	56	55	2449.1158151244
25	57	56	2448.0031307412
25	58	57	2446.8896077783
25	59	58	2445.7771886681
25	60	59	2444.6627922727
25	61	60	2443.5487240007
25	62	61	2442.4356510476
25	63	62	2441.3226709429
25	64	63	2440.2525785718
25	65	64	2439.3108728111
25	66	65	2438.5962522177
25	67	66	2436.7990822749
25	68	67	2429.1662416559
25	69	68	2417.0518166292
25	70	69	2403.4340603166
25	71	70	2389.5047204611
25	72	71	2375.5916553084
25	73	72	2361.6469742537
25	74	73	2347.7140670773
26	17	16	1578.4544820301
26	18	17	1579.5372955538
26	19	18	1581.5276954006
26	20	19	1586.6770484103
26	21	20	1593.1860297397
26	22	21	1601.0388657451
26	23	22	1610.3368905932
26	24	23	1620.2507178467
26	25	24	1630.1704749865
26	26	25	1640.0795225166
26	27	26	1650.3859643145
26	28	27	1662.6340421
26	29	28	1674.572302388
26	30	29	1683.5553562185
26	31	30	1692.6539752008
26	32	31	1695.658621354
26	33	32	1697.3425149294
26	34	33	1698.5437799906
26	35	34	1699.4458790058
26	36	35	1700.285246267
26	37	36	1700.9566909699
26	38	37	1703.861074903
26	39	38	1713.8453156259
26	40	39	1725.7636898225
26	41	40	1739.3857854959
26	42	41	1753.170717068
26	43	42	1767.0707531869
26	44	43	1780.9598423252
26	45	44	1794.8503685482
26	46	45	1808.7387800114
26	47	46	1822.6368457591
26	48	47	1836.5367068434
26	49	48	1850.4332295349
26	50	49	1864.3198907189
26	51	50	1878.2177770855
26	52	51	1892.128075731
26	53	52	1906.0245472016
26	54	53	1919.9273597188
26	55	54	1933.8175707525
26	56	55	1947.7134334734
26	57	56	1961.6011801884
26	58	57	1975.4993934687
26	59	58	1989.3838292314
26	60	59	2003.2929440839
26	61	60	2017.1979635302
26	62	61	2031.0905601038
26	63	62	2044.9819978084
26	64	63	2058.9055836303
26	65	64	2072.8190275338
26	66	65	2086.7368559008
26	67	66	2100.5148639437
26	68	67	2112.1094423961
26	69	68	2118.8584406646
26	70	69	2120.7722106203
26	71	70	2120.3017352335
26	72	71	2119.8318095375
26	73	72	2119.3608159879
26	74	73	2118.8902201112
27	18	17	4.11254450365
27	19	18	6.0975231633921
27	20	19	8.1241239797909
27	21	20	10.018434339895
27	22	21	11.94044197294
27	23	22	13.966010854098
27	24	23	13.99429374554
27	25	24	13.992908905046
27	26	25	13.889738958394
27	27	26	13.996094578244
27	28	27	13.943261206169
27	29	28	13.961094655516
27	30	29	13.829256838197
27	31	30	13.436515939642
27	32	31	13.16217219069
27	33	32	12.955925744517
27	34	33	11.26758099839
27	35	34	8.5044873526649
27	36	35	9.3420117710427
27	37	36	6.9079266154914
27	38	37	9.1319836530982
27	39	38	10.970689421588
27	40	39	12.982363875891
27	41	40	13.992697958478
27	42	41	13.936582251703
27	43	42	13.977668084782
27	44	43	13.986179260183
27	45	44	13.884867181559
27	46	45	13.927137885792
27	47	46	13.910710662541
27	48	47	13.909766360957
27	49	48	13.940070941378
27	50	49	13.877076953631
27	51	50	13.90827997843
27	52	51	13.954862964205
27	53	52	13.893197995736
27	54	53	13.963183217549
27	55	54	13.948198468271
27	56	55	13.944161438567
27	57	56	13.928642164022
27	58	57	13.919632288448
27	59	58	13.893341971666
27	60	59	13.941880325
27	61	60	13.998108282317
27	62	61	13.878701872779
27	63	62	13.982008344322
27	64	63	13.95228849458
27	65	64	13.945977008874
27	66	65	13.898765254379
27	67	66	13.884750159571
27	68	67	13.956998247474
27	69	68	13.973321173731
27	70	69	13.980317651937
27	71	70	13.967857702158
27	72	71	13.87017407299
27	73	72	13.907431576322
27	74	73	13.990516319459
28	19	18	1.984978659742
28	20	19	2.0266008163989
28	21	20	1.8943103601038
28	22	21	1.9220076330448
28	23	22	2.0255688811579
28	24	23	0.028282891442068
28	25	24	-0.0013848404935555
28	26	25	-0.10316994665191
28	27	26	0.10635561984964
28	28	27	-0.05283337207511
28	29	28	0.017833449346945
28	30	29	-0.13183781731896
28	31	30	-0.39274089855419
28	32	31	-0.27434374895275
28	33	32	-0.20624644617294
28	34	33	-1.6883447461266
28	35	34	-2.7630936457253
28	36	35	0.83752441837784
28	37	36	-2.4340851555514
28	38	37	2.2240570376068
28	39	38	1.8387057684897
28	40	39	2.011674454303
28	41	40	1.0103340825873
28	42	41	-0.056115706774872
28	43	42	0.041085833078251
28	44	43	0.0085111754015088
28	45	44	-0.10131207862403
28	46	45	0.042270704233088
28	47	46	-0.016427223251666
28	48	47	-0.00094430158380554
28	49	48	0.030304580421653
28	50	49	-0.062993987747468
28	51	50	0.031203024799471
28	52	51	0.046582985774148
28	53	52	-0.061664968468248
28	54	53	0.069985221812967
28	55	54	-0.01498474927852
28	56	55	-0.0040370297036123
28	57	56	-0.015519274545367
28	58	57	-0.0090098755736836
28	59	58	-0.026290316781962
28	60	59	0.048538353333717
28	61	60	0.056227957317605
28	62	61	-0.11940640953835
28	63	62	0.10330647154246
28	64	63	-0.029719849741086
28	65	64	-0.0063114857068296
28	66	65	-0.047211754494347
28	67	66	-0.014015094807837
28	68	67	0.072248087902555
28	69	68	0.016322926257271
28	70	69	0.0069964782055472
28	71	70	-0.01245994977886
28	72	71	-0.097683629167731
28	73	72	0.03725750333164
28	74	73	0.083084743137006
29	19	18	4.3420194955082
29	20	19	5.5193514834883
29	21	20	6.2598837528783
29	22	21	7.3741311479677
29	23	22	8.8530434321966
29	24	23	2.13365012742
29	25	24	2.0334505025289
29	26	25	1.6822325806597
29	27	26	2.3971909293526
29	28	27	1.855503707612
29	29	28	2.0948662776171
29	30	29	1.5820533004124
29	31	30	0.973
29	32	31	0.973
29	33	32	1.2919135943652
29	34	33	0.973
29	35	34	0.973
29	36	35	3.5215990826384
29	37	36	0.973
29	38	37	6.5156001891765
29	39	38	6.6226227280211
29	40	39	8.2324265791826
29	41	40	5.4451881818867
29	42	41	1.8438824401449
29	43	42	2.1749617238466
29	44	43	2.0661193061513
29	45	44	1.6880752085194
29	46	45	2.1732746516206
29	47	46	1.9746491499881
29	48	47	2.0264593789898
29	49	48	2.1345252785117
29	50	49	1.8156237109116
29	51	50	2.1340627994298
29	52	51	2.1908906066732
29	53	52	1.8214679161102
29	54	53	2.2705861872936
29	55	54	1.9831738713403
29	56	55	2.0195663816392
29	57	56	1.9794538530861
29	58	57	2.0004054330977
29	59	58	1.93992520771
29	60	59	2.1959885866008
29	61	60	2.2283411417848
29	62	61	1.6270777435242
29	63	62	2.3851117990842
29	64	63	1.9340301948742
29	65	64	2.0121056433488
29	66	65	1.8703641945081
29	67	66	1.9801814994952
29	68	67	2.277460917713
29	69	68	2.0910828619716
29	70	69	2.0604034814904
29	71	70	1.9936118250746
29	72	71	1.6990698160563
29	73	72	2.1542627543164
29	74	73	2.3180133884777
30	20	19	2414.8588002162
30	21	20	2411.8128147094
30	22	21	2407.1980394585
30	23	22	2402.4260893827
30	24	23	2396.4703598532
30	25	24	2389.2222769874
30	26	25	2380.6475507468
30	27	26	2371.4675885644
30	28	27	2362.2853867376
30	29	28	2353.1014532228
30	30	29	2343.9167522368
30	31	30	2335.7592630242
30	32	31	2334.0763715116
30	33	32	2342.9457734847
30	34	33	2352.7630564623
30	35	34	2362.8963906621
30	36	35	2375.8179889829
30	37	36	2388.7877361589
30	38	37	2401.7727345998
30	39	38	2414.1003036475
30	40	39	2422.4116629731
30	41	40	2429.7483392076
30	42	41	2431.8187159494
30	43	42	2433.5863239734
30	44	43	2435.6333255254
30	45	44	2437.7251014278
30	46	45	2438.8311097387
30	47	46	2439.7530554269
30	48	47	2440.7623816305
30	49	48	2441.7733011593
30	50	49	2442.7835379966
30	51	50	2443.7947770543
30	52	51	2444.8051972518
30	53	52	2445.8169310748
30	54	53	2446.8271123795
30	55	54	2447.8372403309
30	56	55	2448.8468136862
30	57	56	2449.85968903
30	58	57	2450.4280289282
30	59	58	2449.3144754737
30	60	59	2448.1991392631
30	61	60	2447.0859020924
30	62	61	2445.9733171484
30	63	62	2444.8601511701
30	64	63	2443.7485429292
30	65	64	2442.6356549449
30	66	65	2441.5218806025
30	67	66	2440.4231678097
30	68	67	2439.4804845047
30	69	68	2438.6159434677
30	70	69	2437.2669850449
30	71	70	2430.7552516428
30	72	71	2419.3404297139
30	73	72	2405.9348433106
30	74	73	2392.0194124001
31	20	19	1578.4572625495
31	21	20	1579.5757325301
31	22	21	1581.5168734081
31	23	22	1586.3502014261
31	24	23	1592.3825349454
31	25	24	1599.723844354
31	26	25	1608.4088607347
31	27	26	1617.7068977449
31	28	27	1627.0072032055
31	29	28	1636.3092626277
31	30	29	1645.6120993933
31	31	30	1655.8232780742
31	32	31	1668.6061278731
31	33	32	1677.8234253228
31	34	33	1686.4625172503
31	35	34	1694.2570089856
31	36	35	1696.1883798428
31	37	36	1697.7153751645
31	38	37	1698.9431934794
31	39	38	1700.1088474551
31	40	39	1700.8851519767
31	41	40	1702.3337102309
31	42	41	1711.7907452099
31	43	42	1723.4225047911
31	44	43	1736.8928158525
31	45	44	1750.6577649042
31	46	45	1764.5359474756
31	47	46	1778.4480041219
31	48	47	1792.3282297663
31	49	48	1806.2303667758
31	50	49	1820.1231154287
31	51	50	1834.0296465904
31	52	51	1847.9249168085
31	53	52	1861.8382519679
31	54	53	1875.7302369392
31	55	54	1889.6214881958
31	56	55	1903.5051126648
31	57	56	1917.4341459852
31	58	57	1931.3353003571
31	59	58	1945.2338942112
31	60	59	1959.1547391778
31	61	60	1973.0493854005
31	62	61	1986.9358909866
31	63	62	2000.8296486354
31	64	63	2014.703963697
31	65	64	2028.5942516169
31	66	65	2042.495602442
31	67	66	2056.3851745035
31	68	67	2070.3130613565
31	69	68	2084.1962146899
31	70	69	2098.0349792624
31	71	70	2110.155092163
31	72	71	2117.83540574
31	73	72	2120.8566767089
31	74	73	2120.3866711082
32	21	20	4.067372106413
32	22	21	5.8844240154271
32	23	22	7.537838140674
32	24	23	9.3614518548586
32	25	24	11.131813735405
32	26	25	13.055222753974
32	27	26	13.056929057404
32	28	27	13.088935566079
32	29	28	13.097759776963
32	30	29	13.007092833967
32	31	30	13.085117228884
32	32	31	13.080600649864
32	33	32	13.117051406159
32	34	33	13.130705420296
32	35	34	13.076950958216
32	36	35	13.090002827352
32	37	36	13.033971088322
32	38	37	13.019674586834
32	39	38	10.823429693182
32	40	39	6.3234296931819
32	41	40	8.6041157709741
32	42	41	10.729878066311
32	43	42	12.674055236164
32	44	43	13.986021694564
32	45	44	13.889535133126
32	46	45	13.959654321973
32	47	46	13.972242008243
32	48	47	13.884239303807
32	49	48	13.920426942427
32	50	49	13.887057281358
32	51	50	13.924890077722
32	52	51	13.888422596853
32	53	52	13.973124842362
32	54	53	13.979389482583
32	55	54	13.907495470522
32	56	55	13.981073234761
32	57	56	13.968595914519
32	58	57	13.977168370693
32	59	58	13.911225638806
32	60	59	13.97115611963
32	61	60	13.928424248584
32	62	61	13.93642065672
32	63	62	13.982039187397
32	64	63	13.971991834943
32	65	64	13.958216204653
32	66	65	13.965484043353
32	67	66	13.949256250246
32	68	67	13.91837227551
32	69	68	13.892609307456
32	70	69	13.98260364667
32	71	70	13.9460709692
32	72	71	13.96612499878
32	73	72	13.92864668397
32	74	73	13.95173190474
33	22	21	1.8170519090141
33	23	22	1.6534141252469
33	24	23	1.8236137141846
33	25	24	1.770361880546
33	26	25	1.9234090185692
33	27	26	0.0017063034302556
33	28	27	0.032006508675405
33	29	28	0.0088242108840486
33	30	29	-0.090666942996904
33	31	30	0.078024394917302
33	32	31	-0.0045165790198354
33	33	32	0.036450756294652
33	34	33	0.013654014137574
33	35	34	-0.053754462080542
33	36	35	0.013051869135817
33	37	36	-0.056031739029569
33	38	37	-0.014296501488424
33	39	38	-2.1962448936517
33	40	39	-4.5
33	41	40	2.2806860777922
33	42	41	2.1257622953365
33	43	42	1.9441771698534
33	44	43	1.3119664584004
33	45	44	-0.09648656143807
33	46	45	0.07011918884702
33	47	46	0.012587686269544
33	48	47	-0.088002704435493
33	49	48	0.036187638619449
33	50	49	-0.03336966106901
33	51	50	0.037832796364091
33	52	51	-0.036467480869032
33	53	52	0.084702245509252
33	54	53	0.0062646402209054
33	55	54	-0.071894012060946
33	56	55	0.073577764239161
33	57	56	-0.012477320241741
33	58	57	0.0085724561731322
33	59	58	-0.065942731886171
33	60	59	0.059930480823388
33	61	60	-0.042731871046126
33	62	61	0.0079964081360959
33	63	62	0.045618530677165
33	64	63	-0.010047352453695
33	65	64	-0.013775630290619
33	66	65	0.0072678387002085
33	67	66	-0.016227793106809
33	68	67	-0.030883974735625
33	69	68	-0.025762968054043
33	70	69	0.089994339214172
33	71	70	-0.036532677470239
33	72	71	0.020054029580205
33	73	72	-0.037478314810432
33	74	73	0.023085220770444
34	22	21	3.9895326670072
34	23	22	4.516813990543
34	24	23	5.7516577127992
34	25	24	6.5238969694044
34	26	25	7.9969762628647
34	27	26	1.9508699439778
34	28	27	2.049523008974
34	29	28	1.9772596869179
34	30	29	1.656536423546
34	31	30	2.1942461350964
34	32	31	1.933524872338
34	33	32	2.0664831725728
34	34	33	1.9957732435436
34	35	34	1.7780043555849
34	36	35	1.9898373780777
34	37	36	1.767304226999
34	38	37	1.8970896503876
34	39	38	0.973
34	40	39	0.973
34	41	40	6.3131172663211
34	42	41	7.2387381048755
34	43	42	7.8478531352875
34	44	43	6.4595699218881
34	45	44	1.704588734769
34	46	45	2.2706165053704
34	47	46	2.0783904543616
34	48	47	1.7325612239294
34	49	48	2.152114369954
34	50	49	1.9156327972978
34	51	50	2.1581293389031
34	52	51	1.9053919146671
34	53	52	2.321330931143
34	54	53	2.0578412833151
34	55	54	1.7884260015813
34	56	55	2.284823692563
34	57	56	1.993626660217
34	58	57	2.0653843819253
34	59	58	1.8086936113147
34	60	59	2.2376815222912
34	61	60	1.8880865495793
34	62	61	2.0592000420201
34	63	62	2.1907263189022
34	64	63	2.0021462571644
34	65	64	1.9882288612758
34	66	65	2.0597735821873
34	67	66	1.9790992877003
34	68	67	1.9269068362018
34	69	68	1.9416209410549
34	70	69	2.3403282689627
34	71	70	1.9105415782959
34	72	71	2.1028764937507
34	73	72	1.9057421063225
34	74	73	2.1115273522428
35	23	22	2414.8618358603
35	24	23	2411.8580234927
35	25	24	2407.0972548373
35	26	25	2401.9344958061
35	27	26	2395.4312230857
35	28	27	2388.0166858443
35	29	28	2380.605373892
35	30	29	2373.202286104
35	31	30	2365.7949478778
35	32	31	2358.3664403009
35	33	32	2350.9513089663
35	34	33	2343.5424025471
35	35	34	2336.9830596809
35	36	35	2334.0494864163
35	37	36	2337.4780572354
35	38	37	2345.6647225083
35	39	38	2353.49462478
35	40	39	2361.4060118824
35	41	40	2371.8368479757
35	42	41	2382.2867935618
35	43	42	2392.799581342
35	44	43	2403.2963759961
35	45	44	2413.8083810874
35	46	45	2422.2358128987
35	47	46	2429.714270673
35	48	47	2431.8026632929
35	49	48	2433.5620221659
35	50	49	2435.466607752
35	51	50	2437.3689128296
35	52	51	2438.6282839838
35	53	52	2439.4000144538
35	54	53	2440.3203180684
35	55	54	2441.2391912382
35	56	55	2442.1587569923
35	57	56	2443.0791810955
35	58	57	2443.9995532772
35	59	58	2444.9190472406
35	60	59	2445.8381393547
35	61	60	2446.7576322547
35	62	61	2447.6773743792
35	63	62	2448.5971823439
35	64	63	2449.5175153755
35	65	64	2450.4365012295
35	66	65	2449.8932432871
35	67	66	2448.8816068704
35	68	67	2447.8697884678
35	69	68	2446.8570419201
35	70	69	2445.8451586224
35	71	70	2444.8327473403
35	72	71	2443.8201612772
35	73	72	2442.805366718
35	74	73	2441.7909601909
36	23	22	1578.4561478766
36	24	23	1579.559132101
36	25	24	1581.6189543447
36	26	25	1586.8481179941
36	27	26	1593.4350373344
36	28	27	1600.9449420925
36	29	28	1608.4515800783
36	30	29	1615.9498881185
36	31	30	1623.4525012663
36	32	31	1630.9765560506
36	33	32	1638.4870625446
36	34	33	1645.9912640564
36	35	34	1654.25662788
36	36	35	1664.1319735982
36	37	36	1673.4079156369
36	38	37	1680.0610618973
36	39	38	1687.1222638832
36	40	39	1694.0342444284
36	41	40	1695.5933249947
36	42	41	1696.9973441865
36	43	42	1698.0947219171
36	44	43	1699.0872639483
36	45	44	1700.0812442275
36	46	45	1700.8749691211
36	47	46	1702.2958563035
36	48	47	1711.6851105671
36	49	48	1723.2625865405
36	50	49	1735.7957281312
36	51	50	1748.3138628155
36	52	51	1760.9212893676
36	53	52	1773.5929945614
36	54	53	1786.2489840593
36	55	54	1798.885302119
36	56	55	1811.5311445808
36	57	56	1824.1887910338
36	58	57	1836.8457234632
36	59	58	1849.4905786617
36	60	59	1862.1299076378
36	61	60	1874.7747482117
36	62	61	1887.4230161132
36	63	62	1900.0721894475
36	64	63	1912.7285834868
36	65	64	1925.3664511768
36	66	65	1938.0101199569
36	67	66	1950.6366567686
36	68	67	1963.2654650006
36	69	68	1975.9058576887
36	70	69	1988.5354758957
36	71	70	2001.1716840323
36	72	71	2013.8100736653
36	73	72	2026.4760281984
36	74	73	2039.1371395849
37	24	23	4.0608742667126
37	25	24	6.2191981008855
37	26	25	8.1895616532882
37	27	26	10.213926542587
37	28	27	10.523003529425
37	29	28	10.602859260213
37	30	29	10.510912516553
37	31	30	10.494186494547
37	32	31	10.565519105854
37	33	32	10.58602443555
37	34	33	10.494087178512
37	35	34	10.577600009249
37	36	35	10.519033046608
37	37	36	10.612200059314
37	38	37	10.544839065542
37	39	38	10.508161969018
37	40	39	10.556259912898
37	41	40	10.601337815587
37	42	41	10.559272445299
37	43	42	10.586483303449
37	44	43	10.501477940398
37	45	44	10.539310473582
37	46	45	6.4446944556538
37	47	46	8.7002403630864
37	48	47	10.689839934287
37	49	48	12.630848485116
37	50	49	12.615105167319
37	51	50	12.618962466886
37	52	51	12.652118238249
37	53	52	12.72975650804
37	54	53	12.64519745791
37	55	54	12.616691098792
37	56	55	12.640088570317
37	57	56	12.636286280268
37	58	57	12.723589814712
37	59	58	12.697615581731
37	60	59	12.665849226079
37	61	60	12.642996864928
37	62	61	12.704235324635
37	63	62	12.644971724585
37	64	63	12.700921515561
37	65	64	12.685687469725
37	66	65	12.646131060579
37	67	66	12.684138629578
37	68	67	12.692734957201
37	69	68	12.672671702182
37	70	69	12.669831698196
37	71	70	12.680693090606
37	72	71	12.730371075567
37	73	72	12.716350049869
37	74	73	12.701947715195
38	25	24	2.1583238341729
38	26	25	1.9703635524027
38	27	26	2.024364889299
38	28	27	0.30907698683803
38	29	28	0.079855730787386
38	30	29	-0.091946743659211
38	31	30	-0.016726022006477
38	32	31	0.07133261130657
38	33	32	0.020505329696462
38	34	33	-0.091937257037499
38	35	34	0.083512830736581
38	36	35	-0.058566962641198
38	37	36	0.093167012706399
38	38	37	-0.067360993772745
38	39	38	-0.036677096523345
38	40	39	0.04809794388013
38	41	40	0.045077902688645
38	42	41	-0.042065370287746
38	43	42	0.027210858149919
38	44	43	-0.085005363051312
38	45	44	0.037832533183973
38	46	45	-4.094616017928
38	47	46	2.2555459074327
38	48	47	1.9895995712001
38	49	48	1.9410085508299
38	50	49	-0.015743317797314
38	51	50	0.0038572995667341
38	52	51	0.033155771363527
38	53	52	0.077638269790913
38	54	53	-0.084559050130192
38	55	54	-0.028506359118037
38	56	55	0.023397471525241
38	57	56	-0.0038022900489167
38	58	57	0.087303534443491
38	59	58	-0.025974232980516
38	60	59	-0.031766355652362
38	61	60	-0.022852361151017
38	62	61	0.061238459707239
38	63	62	-0.059263600050473
38	64	63	0.05594979097601
38	65	64	-0.015234045835676
38	66	65	-0.039556409146172
38	67	66	0.038007568998728
38	68	67	0.0085963276238186
38	69	68	-0.020063255019485
38	70	69	-0.0028400039859129
38	71	70	0.010861392410007
38	72	71	0.049677984961308
38	73	72	-0.014021025698167
38	74	73	-0.014402334673795
39	25	24	4.6671892251845
39	26	25	5.4446806686694
39	27	26	6.6842432597297
39	28	27	2.5091069810759
39	29	28	1.9356501905785
39	30	29	1.4914072447789
39	31	30	1.6807003634974
39	32	31	1.9102686739091
39	33	32	1.7825737813274
39	34	33	1.4904780866968
39	35	34	1.9424831485193
39	36	35	1.5764885080758
39	37	36	1.9706159725933
39	38	37	1.5558141111588
39	39	38	1.63121987375
39	40	39	1.8502662787917
39	41	40	1.8466454678963
39	42	41	1.6210933661485
39	43	42	1.7997205359949
39	44	43	1.5084402118965
39	45	44	1.8226556891415
39	46	45	0.973
39	47	46	6.3198701690991
39	48	47	6.8642326410246
39	49	48	7.8139621935621
39	50	49	1.8561470952188
39	51	50	1.9160975183039
39	52	51	2.0085305540771
39	53	52	2.152828218421
39	54	53	1.649099490604
39	55	54	1.8174799463478
39	56	55	1.97759462343
39	57	56	1.894388793348
39	58	57	2.1817759708081
39	59	58	1.8321693321065
39	60	59	1.8117396402197
39	61	60	1.8369586297842
39	62	61	2.0997640794233
39	63	62	1.7261695188173
39	64	63	2.083218926278
39	65	64	1.8639715535512
39	66	65	1.7863222174102
39	67	66	2.0265865457807
39	68	67	1.9374960334543
39	69	68	1.8480626136721
39	70	69	1.9004029534262
39	71	70	1.9432751927529
39	72	71	2.0671142681128
39	73	72	1.8704264306793
39	74	73	1.8679683739416
40	26	25	2414.8775742606
40	27	26	2411.9038439742
40	28	27	2407.2283499469
40	29	28	2402.3680244937
40	30	29	2396.1771332737
40	31	30	2388.586097418
40	32	31	2379.6363416617
40	33	32	2369.9128532254
40	34	33	2360.561115353
40	35	34	2351.6667062229
40	36	35	2343.1268905039
40	37	36	2335.8776681137
40	38	37	2333.8304737648
40	39	38	2340.0987089881
40	40	39	2348.5355565373
40	41	40	2356.6540667722
40	42	41	2365.8866927988
40	43	42	2376.5349063952
40	44	43	2387.1467708275
40	45	44	2397.7892078888
40	46	45	2407.2230499006
40	47	46	2415.4908685238
40	48	47	2423.1920644363
40	49	48	2430.2968966688
40	50	49	2431.9423992048
40	51	50	2433.6802751749
40	52	51	2435.7101382205
40	53	52	2437.7829187678
40	54	53	2438.848284001
40	55	54	2439.7422675698
40	56	55	2440.7075966817
40	57	56	2441.6627886776
40	58	57	2442.609752079
40	59	58	2443.5498652956
40	60	59	2444.4853087072
40	61	60	2445.416909219
40	62	61	2446.3440388695
40	63	62	2447.2724983154
40	64	63	2448.1974758046
40	65	64	2449.1220126227
40	66	65	2450.0453900459
40	67	66	2450.3239084678
40	68	67	2449.3091887704
40	69	68	2448.2932060114
40	70	69	2447.2786556289
40	71	70	2446.2651167461
40	72	71	2445.2531620302
40	73	72	2444.238839335
40	74	73	2443.225096531
41	26	25	1578.4503688179
41	27	26	1579.5423070593
41	28	27	1581.4861730598
41	29	28	1586.4090131586
41	30	29	1592.6795330746
41	31	30	1600.3682066137
41	32	31	1609.4330762289
41	33	32	1619.2816304546
41	34	33	1628.7536525736
41	35	34	1637.7624636805
41	36	35	1646.4121205127
41	37	36	1655.6717011314
41	38	37	1666.8316216664
41	39	38	1675.5242495267
41	40	39	1682.6500519309
41	41	40	1689.9715278065
41	42	41	1694.7039647149
41	43	42	1696.2955363542
41	44	43	1697.5602109339
41	45	44	1698.5665244274
41	46	45	1699.4585571876
41	47	46	1700.2403346505
41	48	47	1700.9303422617
41	49	48	1703.0493022837
41	50	49	1712.6046439204
41	51	50	1724.0407514693
41	52	51	1737.3982824422
41	53	52	1751.1714570243
41	54	53	1764.845620892
41	55	54	1778.2996498132
41	56	55	1791.5748286871
41	57	56	1804.7106022276
41	58	57	1817.7332163639
41	59	58	1830.6616269536
41	60	59	1843.5258185146
41	61	60	1856.3371626241
41	62	61	1869.0870235767
41	63	62	1881.8551718378
41	64	63	1894.5754363285
41	65	64	1907.2896407209
41	66	65	1919.9879011484
41	67	66	1932.634858977
41	68	67	1945.2998791384
41	69	68	1957.9806639468
41	70	69	1970.6435708376
41	71	70	1983.2938528974
41	72	71	1995.9243624955
41	73	72	2008.5844275523
41	74	73	2021.2372548133
42	27	26	4.0643546214392
42	28	27	5.9588658364927
42	29	28	7.7175364692877
42	30	29	9.7123688541045
42	31	30	11.687908970648
42	32	31	13.499999598886
42	33	32	13.680904150388
42	34	33	13.015242584691
42	35	34	12.422472920647
42	36	35	11.953906536645
42	37	36	11.685698955794
42	38	37	11.349198009896
42	39	38	11.088275343522
42	40	39	10.934149404543
42	41	40	10.894452857779
42	42	41	10.831106482323
42	43	42	10.722757750542
42	44	43	10.6443277804
42	45	44	10.686163941797
42	46	45	8.1505149477182
42	47	46	8.8352692850802
42	48	47	6.4875304811939
42	49	48	8.7267954901305
42	50	49	10.481866005664
42	51	50	12.553051492218
42	52	51	13.915266969802
42	53	52	13.80417714024
42	54	53	13.587560696989
42	55	54	13.33807917186
42	56	55	13.210653548288
42	57	56	13.157308460518
42	58	57	13.06329907964
42	59	58	12.93388484166
42	60	59	12.814986532662
42	61	60	12.787245193642
42	62	61	12.688890134391
42	63	62	12.798299219242
42	64	63	12.792570063459
42	65	64	12.779780660612
42	66	65	12.673199301541
42	67	66	12.65272762078
42	68	67	12.608535214036
42	69	68	12.653335841648
42	70	69	12.726803806137
42	71	70	12.63825234811
42	72	71	12.607890952705
42	73	72	12.740485918291
42	74	73	12.673214992558
43	28	27	1.8945112150535
43	29	28	1.758670632795
43	30	29	1.9948323848168
43	31	30	1.9755401165434
43	32	31	1.8120906282379
43	33	32	0.18090455150215
43	34	33	-0.66566156569741
43	35	34	-0.59276966404314
43	36	35	-0.46856638400233
43	37	36	-0.26820758085105
43	38	37	-0.33650094589849
43	39	38	-0.26092266637408
43	40	39	-0.15412593897891
43	41	40	-0.039696546763524
43	42	41	-0.063346375456419
43	43	42	-0.10834873178045
43	44	43	-0.078429970142716
43	45	44	0.041836161397132
43	46	45	-2.5356489940785
43	47	46	0.68475433736208
43	48	47	-2.3477388038864
43	49	48	2.2392650089366
43	50	49	1.7550705155334
43	51	50	2.0711854865542
43	52	51	1.3622154775842
43	53	52	-0.11108982956206
43	54	53	-0.21661644325112
43	55	54	-0.24948152512909
43	56	55	-0.12742562357192
43	57	56	-0.053345087770118
43	58	57	-0.094009380878207
43	59	58	-0.12941423797977
43	60	59	-0.11889830899761
43	61	60	-0.027741339020263
43	62	61	-0.09835505925151
43	63	62	0.10940908485124
43	64	63	-0.0057291557828805
43	65	64	-0.012789402847503
43	66	65	-0.10658135907045
43	67	66	-0.02047168076059
43	68	67	-0.044192406744282
43	69	68	0.044800627611673
43	70	69	0.07346796448927
43	71	70	-0.088551458027608
43	72	71	-0.030361395404404
43	73	72	0.13259496558546
43	74	73	-0.067270925732412
44	28	27	4.1376842365597
44	29	28	4.7957545163416
44	30	29	6.3324253716616
44	31	30	7.3859955825826
44	32	31	7.8841633310707
44	33	32	2.6029736417616
44	34	33	0.973
44	35	34	0.973
44	36	35	0.973
44	37	36	0.973
44	38	37	0.973
44	39	38	0.973
44	40	39	1.3520827596758
44	41	40	1.6507733889098
44	42	41	1.5845189507038
44	43	42	1.4611644342154
44	44	43	1.5336981339259
44	45	44	1.8459736139456
44	46	45	0.973
44	47	46	3.0579743190557
44	48	47	0.973
44	49	48	6.3019036671195
44	50	49	6.1555679694727
44	51	50	8.1642209683009
44	52	51	6.5984830126306
44	53	52	1.6493379923332
44	54	53	1.2878692243668
44	55	54	1.1706823594365
44	56	55	1.5545716923155
44	57	56	1.785969643097
44	58	57	1.6501435766801
44	59	58	1.5304133972143
44	60	59	1.5554018447418
44	61	60	1.8345194841303
44	62	61	1.6100712313722
44	63	62	2.2585055912419
44	64	63	1.9028459233553
44	65	64	1.879922111882
44	66	65	1.5838618535685
44	67	66	1.845065271018
44	68	67	1.769118456285
44	69	68	2.0441634949952
44	70	69	2.1397069678031
44	71	70	1.6364382403525
44	72	71	1.8110914071666
44	73	72	2.3227709925777
44	74	73	1.703926593012
45	29	28	2414.8739556831
45	30	29	2411.9824938183
45	31	30	2407.2767486298
45	32	31	2402.3079262363
45	33	32	2395.9700331651
45	34	33	2388.2243426732
45	35	34	2379.1798498989
45	36	35	2369.4000369494
45	37	36	2359.6135473003
45	38	37	2349.8226352722
45	39	38	2340.4134316911
45	40	39	2334.4106986645
45	41	40	2338.1220065824
45	42	41	2348.0262513771
45	43	42	2357.2197601368
45	44	43	2367.7284599482
45	45	44	2379.2322233357
45	46	45	2389.9130072114
45	47	46	2399.2813543333
45	48	47	2408.1780252042
45	49	48	2416.4765241088
45	50	49	2423.885014496
45	51	50	2430.565966867
45	52	51	2432.1115182358
45	53	52	2433.9169262266
45	54	53	2435.9801415716
45	55	54	2437.9788138991
45	56	55	2438.959339434
45	57	56	2439.9207622564
45	58	57	2440.9310064185
45	59	58	2441.9422170511
45	60	59	2442.9441905798
45	61	60	2443.9285810051
45	62	61	2444.8972713586
45	63	62	2445.8565282413
45	64	63	2446.8058543681
45	65	64	2447.7515163438
45	66	65	2448.6909398547
45	67	66	2449.6223280227
45	68	67	2450.5540833102
45	69	68	2449.7516607902
45	70	69	2448.7320293566
45	71	70	2447.712682449
45	72	71	2446.696156089
45	73	72	2445.6805436962
45	74	73	2444.6666031781
46	29	28	1578.4516975414
46	30	29	1579.5134272473
46	31	30	1581.4371518614
46	32	31	1586.4698844142
46	33	32	1592.8892969526
46	34	33	1600.7346143331
46	35	34	1609.8954394953
46	36	35	1619.8010426937
46	37	36	1629.7134084683
46	38	37	1639.630253504
46	39	38	1649.8652177965
46	40	39	1661.9566132678
46	41	40	1673.9279434606
46	42	41	1682.1907477807
46	43	42	1690.4816842517
46	44	43	1694.9792507365
46	45	44	1696.6337821614
46	46	45	1697.8217770569
46	47	46	1698.7076168377
46	48	47	1699.54885648
46	49	48	1700.3335349681
46	50	49	1700.9704685463
46	51	50	1703.8499501906
46	52	51	1713.7175331367
46	53	52	1725.5980357202
46	54	53	1739.1750417827
46	55	54	1752.953718612
46	56	55	1766.8480891688
46	57	56	1780.7543037385
46	58	57	1794.6471531224
46	59	58	1808.5532933818
46	60	59	1822.3324052477
46	61	60	1835.8697147686
46	62	61	1849.1911173435
46	63	62	1862.3827910898
[...]
71	46	45	1581.4763724357
71	47	46	1586.4115464538
71	48	47	1592.7233581953
71	49	48	1600.4865328912
71	50	49	1609.7688666517
71	51	50	1619.6852262476
71	52	51	1629.5891755475
71	53	52	1639.5071508987
71	54	53	1649.7491827421
71	55	54	1661.839340915
71	56	55	1674.0924969306
71	57	56	1683.0491253864
71	58	57	1692.3703939049
71	59	58	1695.6950732386
71	60	59	1697.4777980978
71	61	60	1698.6650740709
71	62	61	1699.7549058627
71	63	62	1700.6796742892
71	64	63	1701.2616370888
71	65	64	1708.8970457092
71	66	65	1720.3803615253
71	67	66	1733.6589453164
71	68	67	1747.4308889993
71	69	68	1761.3064862769
71	70	69	1775.2304349095
71	71	70	1789.1399984639
71	72	71	1803.0337870428
71	73	72	1816.9256998748
71	74	73	1830.8175391611
72	45	44	3.9992962979057
72	46	45	5.960080886427
72	47	46	7.7677260603217
72	48	47	9.7680548899571
72	49	48	11.870633092732
72	50	49	13.886036835909
72	51	50	13.963380952445
72	52	51	13.917313730994
72	53	52	13.899063388146
72	54	53	13.982434395188
72	55	54	13.928933324651
72	56	55	13.995169268458
72	57	56	13.914786822905
72	58	57	13.883517058503
72	59	58	13.974998411997
72	60	59	13.905652191753
72	61	60	11.520628052125
72	62	61	11.670117098484
72	63	62	7.8244770060415
72	64	63	8.2813237143407
72	65	64	10.47933085827
72	66	65	12.495750419561
72	67	66	13.997367390029
72	68	67	13.974374479586
72	69	68	13.99579854686
72	70	69	13.947498017368
72	71	70	13.911887499029
72	72	71	13.900901359606
72	73	72	13.874927069177
72	74	73	13.965455071051
73	46	45	1.9607845885213
73	47	46	1.8076451738947
73	48	47	2.0003288296354
73	49	48	2.1025782027747
73	50	49	2.015403743177
73	51	50	0.077344116535969
73	52	51	-0.046067221451084
73	53	52	-0.018250342847313
73	54	53	0.083371007042006
73	55	54	-0.053501070537605
73	56	55	0.066235943806824
73	57	56	-0.080382445552386
73	58	57	-0.03126976440195
73	59	58	0.091481353493872
73	60	59	-0.069346220244189
73	61	60	-2.3850241396282
73	62	61	0.14948904635931
73	63	62	-3.8456400924426
73	64	63	0.45684670829912
73	65	64	2.1980071439291
73	66	65	2.0164195612911
73	67	66	1.5016169704678
73	68	67	-0.022992910442408
73	69	68	0.021424067274202
73	70	69	-0.048300529492552
73	71	70	-0.035610518339091
73	72	71	-0.010986139422748
73	73	72	-0.025974290429149
73	74	73	0.090528001873754
74	46	45	4.2335032885388
74	47	46	4.9119632637796
74	48	47	6.3762862969711
74	49	48	7.8522659585496
74	50	49	8.7718288962126
74	51	50	2.2953737127092
74	52	51	1.8758811128939
74	53	52	1.9674024411606
74	54	53	2.3179881787221
74	55	54	1.8519824018516
74	56	55	2.2617552654117
74	57	56	1.7605767959165
74	58	57	1.9223274278028
74	59	58	2.3443928146532
74	60	59	1.7968085448649
74	61	60	0.973
74	62	61	2.240228559269
74	63	62	0.973
74	64	63	2.4737305442836
74	65	64	7.2729409581601
74	66	65	7.9654373594529
74	67	66	7.10408062029
74	68	67	1.9587859894737
74	69	68	2.1106799293273
74	70	69	1.8711189478271
74	71	70	1.9104473002088
74	72	71	1.9919173689123
74	73	72	1.939226509126
74	74	73	2.3399971902205
75	47	46	2414.8600693727
75	48	47	2411.8101275915
75	49	48	2407.08284685
75	50	49	2402.0447753618
75	51	50	2395.7093807468
75	52	51	2388.0016802354
75	53	52	2378.9488260843
75	54	53	2369.163313439
75	55	54	2359.3767958601
75	56	55	2349.5782837367
75	57	56	2340.1953304277
75	58	57	2334.3497222776
75	59	58	2338.670952154
75	60	59	2349.3163337954
75	61	60	2359.6622170156
75	62	61	2372.9595658166
75	63	62	2386.7655265055
75	64	63	2399.6964372251
75	65	64	2412.1315021929
75	66	65	2421.2281466369
75	67	66	2428.3745059606
75	68	67	2431.4801590493
75	69	68	2433.1553459704
75	70	69	2435.1175640665
75	71	70	2437.2124096026
75	72	71	2438.6432537971
75	73	72	2439.5056285762
75	74	73	2440.5156272979
76	47	46	1578.4567965213
76	48	47	1579.5767192263
76	49	48	1581.6335476516
76	50	49	1586.7364199972
76	51	50	1593.153301944
76	52	51	1600.9601407079
76	53	52	1610.1294347923
76	54	53	1620.0408109976
76	55	54	1629.9532050611
76	56	55	1639.8777479464
76	57	56	1650.1444213595
76	58	57	1662.3238367317
76	59	58	1674.3712500213
76	60	59	1683.3541764189
76	61	60	1692.6843530424
76	62	61	1695.7611358548
76	63	62	1697.5241617374
76	64	63	1698.7468656972
76	65	64	1699.9226841303
76	66	65	1700.7828326086
76	67	66	1701.4610487642
76	68	67	1709.5628686594
76	69	68	1720.5864503905
76	70	69	1733.4988432014
76	71	70	1747.2839920036
76	72	71	1761.1486700289
76	73	72	1775.0453970097
76	74	73	1788.9348711055
77	48	47	4.1510441398274
77	49	48	6.0906879771503
77	50	49	8.0249945380541
77	51	50	9.8896056736566
77	52	51	11.907534570261
77	53	52	13.687567640872
77	54	53	13.973926423048
77	55	54	13.884357954061
77	56	55	13.985586905845
77	57	56	13.908044373232
77	58	57	13.943520389702
77	59	58	13.935378808326
77	60	59	13.958342033261
77	61	60	13.914042726327
77	62	61	13.975767676374
77	63	62	13.895659000042
77	64	63	12.638722303891
77	65	64	11.600201604956
77	66	65	7.1366536510737
77	67	66	8.1813413948055
77	68	67	10.049258548988
77	69	68	12.116427588642
77	70	69	13.92275609311
77	71	70	13.929780004753
77	72	71	13.985071838079
77	73	72	13.982468487259
77	74	73	13.905734765991
78	49	48	1.9396438373229
78	50	49	1.9343065609038
78	51	50	1.8646111356025
78	52	51	2.0179288966046
78	53	52	1.7800330706104
78	54	53	0.28635878217616
78	55	54	-0.089568468986544
78	56	55	0.10122895178385
78	57	56	-0.07754253261257
78	58	57	0.035476016469765
78	59	58	-0.0081415813765489
78	60	59	0.022963224935811
78	61	60	-0.044299306934699
78	62	61	0.061724950047209
78	63	62	-0.080108676331582
78	64	63	-1.256936696151
78	65	64	-1.0385206989349
78	66	65	-4.4635479538827
78	67	66	1.0446877437318
78	68	67	1.8679171541822
78	69	68	2.0671690396545
78	70	69	1.8063285044674
78	71	70	0.0070239116436266
78	72	71	0.055291833325755
78	73	72	-0.0026033508195553
78	74	73	-0.076733721268829
79	49	48	4.2718046185333
79	50	49	5.2858631316111
79	51	50	6.1205324731934
79	52	51	7.6312709538833
79	53	52	7.8789827378074
79	54	53	3.0005513376955
79	55	54	1.7273315179011
79	56	55	2.3785651219898
79	57	56	1.769539464537
79	58	57	2.1522807214993
79	59	58	2.0048934522804
79	60	59	2.1118293629127
79	61	60	1.8815124118216
79	62	61	2.2442641944979
79	63	62	1.7599164500862
79	64	63	0.973
79	65	64	0.973
79	66	65	0.973
79	67	66	3.6150700077172
79	68	67	6.2123819485189
79	69	68	7.8950744119071
79	70	69	8.0918748703575
79	71	70	2.0552448809456
79	72	71	2.2236732198855
79	73	72	2.0282781218835
79	74	73	1.7720579735471
80	50	49	2414.894544436
80	51	50	2412.072300241
80	52	51	2407.5620207869
80	53	52	2402.8446724906
80	54	53	2396.7480000571
80	55	54	2389.3065779461
80	56	55	2380.6962084991
80	57	56	2371.0446518167
80	58	57	2361.2606886565
80	59	58	2351.457721087
80	60	59	2341.8374691515
80	61	60	2334.7865815668
80	62	61	2336.6150566149
80	63	62	2347.3488545468
80	64	63	2357.6964904596
80	65	64	2370.3686805891
80	66	65	2384.1648035999
80	67	66	2397.778657724
80	68	67	2410.7631656536
80	69	68	2420.392057137
80	70	69	2427.5326021899
80	71	70	2431.3307560415
80	72	71	2432.9720542736
80	73	72	2434.9180182824
80	74	73	2437.0129204638
81	50	49	1578.4441374587
81	51	50	1579.4804507978
81	52	51	1581.1482104668
81	53	52	1585.9262344036
81	54	53	1592.1013236679
81	55	54	1599.6384590967
81	56	55	1608.3595771352
81	57	56	1618.1352744037
81	58	57	1628.0450811936
81	59	58	1637.9741368322
81	60	59	1648.042228207
81	61	60	1659.6929005655
81	62	61	1672.7109907372
81	63	62	1681.5798543524
81	64	63	1690.911611598
81	65	64	1695.3738803389
81	66	65	1697.2208692916
81	67	66	1698.5655268384
81	68	67	1699.7932987725
81	69	68	1700.7037747633
81	70	69	1701.2759601073
81	71	70	1708.5797209004
81	72	71	1719.3802978266
81	73	72	1732.1857304778
81	74	73	1745.9712520363
82	51	50	3.8447853377257
82	52	51	5.6038913469231
82	53	52	7.6821737988461
82	54	53	9.4946528053289
82	55	54	11.363262112416
82	56	55	13.020550845734
82	57	56	13.913668173922
82	58	57	13.890032918721
82	59	58	13.983547829513
82	60	59	13.983255099368
82	61	60	13.896521793578
82	62	61	13.98337875746
82	63	62	13.992536327657
82	64	63	13.874701271593
82	65	64	13.888576014426
82	66	65	13.972362509989
82	67	66	13.384546470053
82	68	67	12.128909255595
82	69	68	7.6614731374365
82	70	69	8.0761423099279
82	71	70	9.8884009563183
82	72	71	11.78784699342
82	73	72	13.809381102962
82	74	73	13.891239389109
83	52	51	1.7591060091974
83	53	52	2.078282451923
83	54	53	1.8124790064828
83	55	54	1.868609307087
83	56	55	1.657288733318
83	57	56	0.89311732818788
83	58	57	-0.023635255200789
83	59	58	0.093514910792001
83	60	59	-0.00029273014515496
83	61	60	-0.086733305789531
83	62	61	0.086856963881292
83	63	62	0.0091575701977114
83	64	63	-0.11783505606465
83	65	64	0.013874742833432
83	66	65	0.083786495563109
83	67	66	-0.58781603993609
83	68	67	-1.2556372144578
83	69	68	-4.4674361181588
83	70	69	0.41466917249141
83	71	70	1.8122586463904
83	72	71	1.899446037102
83	73	72	2.0215341095417
83	74	73	0.081858286146918
84	52	51	3.7723279565136
84	53	52	5.3702100455705
84	54	53	5.7944267179603
84	55	54	6.9109810820065
84	56	55	7.1425255604445
84	57	56	5.0248181109963
84	58	57	1.9484973849315
84	59	58	2.3523099068503
84	60	59	2.0361449073864
84	61	60	1.7378012936363
84	62	61	2.3298515353074
84	63	62	2.0689635673902
84	64	63	1.6320406791061
84	65	64	2.0739089823899
84	66	65	2.3181537058268
84	67	66	0.973
84	68	67	0.973
84	69	68	0.973
84	70	69	2.355345969944
84	71	70	5.9951388827215
84	72	71	7.2260401124783
84	73	72	8.7472268623497
84	74	73	2.301783311912
85	53	52	2414.8554173356
85	54	53	2412.0388807943
85	55	54	2407.4219368454
85	56	55	2402.6005966935
85	57	56	2396.5541776271
85	58	57	2389.5765388329
85	59	58	2382.5619043164
85	60	59	2375.5531267237
85	61	60	2368.5244661029
85	62	61	2361.5125972083
85	63	62	2354.488637996
85	64	63	2347.4660694145
85	65	64	2340.7717053503
85	66	65	2335.1499980483
85	67	66	2333.8836589833
85	68	67	2339.598039528
85	69	68	2347.2750256526
85	70	69	2354.6816694355
85	71	70	2362.426775518
85	72	71	2372.2970607486
85	73	72	2382.1867853868
85	74	73	2392.1274722605
86	53	52	1578.4585047252
86	54	53	1579.492722244
86	55	54	1581.290096201
86	56	55	1586.173449561
86	57	56	1592.2976390878
86	58	57	1599.3650259096
86	59	58	1606.4698843006
86	60	59	1613.568810435
86	61	60	1620.6878753379
86	62	61	1627.789932535
86	63	62	1634.9042355586
86	64	63	1642.0171300648
86	65	64	1649.4065717505
86	66	65	1657.5042654853
86	67	66	1667.3837798368
86	68	67	1675.1199288284
86	69	68	1681.5132736061
86	70	69	1688.1927704858
86	71	70	1694.1868163534
86	72	71	1695.6621122705
86	73	72	1696.9854409816
86	74	73	1698.0311695151
87	54	53	3.8698786158062
87	55	54	5.8858981293946
87	56	55	7.5782715788664
87	57	56	9.4231696671032
87	58	57	10.016117324212
87	59	58	9.980673781142
87	60	59	9.9442510543623
87	61	60	10.0394720489
87	62	61	10.018320388575
87	63	62	10.014271685751
87	64	63	9.9945215909788
87	65	64	10.023756203838
87	66	65	10.040566723249
87	67	66	9.9502608094666
87	68	67	10.050048014556
87	69	68	9.9419914761325
87	70	69	9.941047930764
87	71	70	9.982174013995
87	72	71	10.045291171793
87	73	72	9.9731404524226
87	74	73	10.0417794332
88	55	54	2.0160195135884
88	56	55	1.6923734494718
88	57	56	1.8448980882368
88	58	57	0.59294765710887
88	59	58	-0.035443543069997
88	60	59	-0.03642272677971
88	61	60	0.095220994537231
88	62	61	-0.02115166032454
88	63	62	-0.0040487028239298
88	64	63	-0.019750094772316
88	65	64	0.029234612858854
88	66	65	0.016810519411228
88	67	66	-0.090305913782213
88	68	67	0.099787205089816
88	69	68	-0.10805653842399
88	70	69	-0.00094354536850005
88	71	70	0.041126083231065
88	72	71	0.06311715779826
88	73	72	-0.072150719370692
88	74	73	0.068638980777468
89	55	54	4.27249929174
89	56	55	4.6066701225771
89	57	56	5.8316047347329
89	58	57	3.1173107956006
89	59	58	1.5980581610245
89	60	59	1.59326372642
89	61	60	1.9181696619909
89	62	61	1.6351024208969
89	63	62	1.6760921323446
89	64	63	1.6367912055049
89	65	64	1.7572076083179
89	66	65	1.7285423393325
89	67	66	1.464453109052
89	68	67	1.9302779181674
89	69	68	1.4214766063215
89	70	69	1.6780503279074
89	71	70	1.7823629915283
89	72	71	1.8410258888566
89	73	72	1.509324605335
89	74	73	1.854068084069
90	56	55	2414.8298323693
90	57	56	2411.7729795293
90	58	57	2407.0385336889
90	59	58	2402.0655031304
90	60	59	2395.8117827958
90	61	60	2388.2004269565
90	62	61	2379.2408625698
90	63	62	2370.4337286028
90	64	63	2362.0607388654
90	65	64	2354.0230887905
90	66	65	2346.2471949176
90	67	66	2339.2009045617
90	68	67	2334.635949342
90	69	68	2334.9305260525
90	70	69	2342.6317978237
90	71	70	2350.3555432276
90	72	71	2357.8870782112
90	73	72	2366.8281800867
90	74	73	2376.8001223728
91	56	55	1578.4678993914
91	57	56	1579.5903598005
91	58	57	1581.6784307789
91	59	58	1586.7154256226
91	60	59	1593.0495827757
91	61	60	1600.7588376598
91	62	61	1609.8336420655
91	63	62	1618.7540554553
91	64	63	1627.2347405516
91	65	64	1635.3757727677
91	66	65	1643.2516820114
91	67	66	1651.4174412424
91	68	67	1660.6000662772
91	69	68	1670.7960406328
91	70	69	1677.569871095
91	71	70	1684.2913615135
91	72	71	1691.0834884057
91	73	72	1694.8446873305
91	74	73	1696.3351777662
92	57	56	4.0700236807532
92	58	57	6.0857060878515
92	59	58	7.9857787182835
92	60	59	9.7256086628396
92	61	60	11.743935605616
92	62	61	12.951351441674
92	63	62	12.249790720363
92	64	63	11.653218634222
92	65	64	11.190065531438
92	66	65	10.998688985561
92	67	66	10.751232058918
92	68	67	10.554043821495
92	69	68	10.406372965143
92	70	69	10.229178914166
92	71	70	10.209543194059
92	72	71	10.172284092321
92	73	72	10.048207842999
92	74	73	10.116377217187
93	58	57	2.0156824070984
93	59	58	1.900072630432
93	60	59	1.7398299445561
93	61	60	2.0183269427763
93	62	61	1.2074158360585
93	63	62	-0.70156072131146
93	64	63	-0.59657208614115
93	65	64	-0.46315310278356
93	66	65	-0.19137654587778
93	67	66	-0.24745692664214
93	68	67	-0.19718823742314
93	69	68	-0.14767085635186
93	70	69	-0.17719405097766
93	71	70	-0.019635720107244
93	72	71	-0.03725910173743
93	73	72	-0.12407624932234
93	74	73	0.068169374188708
94	58	57	4.3807066726632
94	59	58	5.1991080184596
94	60	59	5.7420827504996
94	61	60	7.5386032280172
94	62	61	5.7041373063338
94	63	62	0.973
94	64	63	0.973
94	65	64	0.973
94	66	65	1.2562103313914
94	67	66	0.973
94	68	67	1.2261738355377
94	69	68	1.3457592159019
94	70	69	1.2655080649847
94	71	70	1.6525033018792
94	72	71	1.6066057691622
94	73	72	1.3879816033852
94	74	73	1.8598559681442
95	59	58	2414.8593783923
95	60	59	2411.9484889912
95	61	60	2407.4094249712
95	62	61	2402.6937210527
95	63	62	2396.641597031
95	64	63	2389.214746958
95	65	64	2380.4731917271
95	66	65	2371.3666080962
95	67	66	2362.2568273076
95	68	67	2353.1410784088
95	69	68	2344.0207437314
95	70	69	2335.9168898315
95	71	70	2334.0024995889
95	72	71	2341.8961523818
95	73	72	2350.7113399879
95	74	73	2359.0855340591
96	59	58	1578.4570502462
96	60	59	1579.5259136427
96	61	60	1581.3027690053
96	62	61	1586.0791274142
96	63	62	1592.209095275
96	64	63	1599.7314712359
96	65	64	1608.5854624016
96	66	65	1617.8091770476
96	67	66	1627.0361299738
96	68	67	1636.2691277731
96	69	68	1645.5067703351
96	70	69	1655.6214912273
96	71	70	1668.1375688212
96	72	71	1676.9757931605
96	73	72	1684.6122279437
96	74	73	1692.1642859075
97	60	59	3.8447639940612
97	61	60	5.6791266903889
97	62	61	7.640854550414
97	63	62	9.4405025505742
97	64	63	11.421963884828
97	65	64	13.012270239909
97	66	65	12.984371756279
97	67	66	12.995853155312
97	68	67	13.006837156665
97	69	68	12.961017791257
97	70	69	13.031157599441
97	71	70	12.559074226099
97	72	71	12.011778056626
97	73	72	11.442599717387
97	74	73	11.144327250079
98	61	60	1.8343626963277
98	62	61	1.9617278600251
98	63	62	1.7996480001602
98	64	63	1.9814613342541
98	65	64	1.5903063550805
98	66	65	-0.02789848363027
98	67	66	0.011481399033219
98	68	67	0.010984001352917
98	69	68	-0.045819365407805
98	70	69	0.070139808184468
98	71	70	-0.47208337334238
98	72	71	-0.54729616947349
98	73	72	-0.56917833923897
98	74	73	-0.29827246730796
99	61	60	3.911518067875
99	62	61	5.1322202484559
99	63	62	5.7376235105578
99	64	63	7.2530068360154
99	65	64	6.9283760980498
99	66	65	1.8512905344394
99	67	66	1.9756419443008
99	68	67	1.9751575931238
99	69	68	1.7932539805743
99	70	69	2.1633169400727
99	71	70	0.973
99	72	71	0.973
99	73	72	0.973
99	74	73	0.973
100	62	61	2414.8844513154
100	63	62	2411.952405891
100	64	63	2407.1483753425
100	65	64	2402.0327751596
100	66	65	2395.5605150873
100	67	66	2387.7034512246
100	68	67	2378.4408955037
100	69	68	2368.6464148381
100	70	69	2358.85036586
100	71	70	2349.0623008312
100	72	71	2339.7408343487
100	73	72	2334.2278371524
100	74	73	2339.2625557089
101	62	61	1578.4478435991
101	63	62	1579.5244753771
101	64	63	1581.5671763159
101	65	64	1586.7485745484
101	66	65	1593.304082348
101	67	66	1601.2622056101
101	68	67	1610.6438984955
101	69	68	1620.5643580696
101	70	69	1630.4864061279
101	71	70	1640.400367545
101	72	71	1650.7262470797
101	73	72	1663.0578762544
101	74	73	1674.8490054691
102	63	62	4.018615917157
102	64	63	6.1678624366304
102	65	64	8.1947875515009
102	66	65	10.095725917275
102	67	66	12.087148355938
102	68	67	13.916756611222
102	69	68	13.873082711415
102	70	69	13.970749160051
102	71	70	13.922085633471
102	72	71	13.919626296114
102	73	72	13.89674285165
102	74	73	13.8748673278
103	64	63	2.1492465194734
103	65	64	2.0269251148705
103	66	65	1.9009383657738
103	67	66	1.9914224386634
103	68	67	1.8296082552838
103	69	68	-0.043673899807034
103	70	69	0.097666448636446
103	71	70	-0.048663526580203
103	72	71	-0.0024593373574326
103	73	72	-0.022883444463368
103	74	73	-0.021875523850614
104	64	63	4.6239714702746
104	65	64	5.559217427776
104	66	65	6.3171910975532
104	67	66	7.6572369962964
104	68	67	8.1667304192483
104	69	68	1.8798735915629
104	70	69	2.3646891363214
104	71	70	1.867603388115
104	72	71	2.0223794668753
104	73	72	1.9516596977621
104	74	73	1.9529264458677
105	65	64	2414.8420826617
105	66	65	2411.6921621242
105	67	66	2406.8077182934
105	68	67	2401.6811510426
105	69	68	2395.3062389906
105	70	69	2387.5620720242
105	71	70	2378.9876058855
105	72	71	2370.4015149698
105	73	72	2361.816110178
105	74	73	2353.2254117181
106	65	64	1578.4634011481
106	66	65	1579.6200355301
106	67	66	1581.9122149758
106	68	67	1587.1047213376
106	69	68	1593.5616290038
106	70	69	1601.4054032629
106	71	70	1610.0901561966
106	72	71	1618.7866834281
106	73	72	1627.4825157104
106	74	73	1636.183709749
107	66	65	4.2842987557744
107	67	66	6.3335589328256
107	68	67	8.0892261283855
107	69	68	9.909994260104
107	70	69	11.839966300701
107	71	70	12.266656966092
107	72	71	12.295276953945
107	73	72	12.238093200747
107	74	73	12.208948951288
108	67	66	2.0492601770512
108	68	67	1.7556671955599
108	69	68	1.8207681317185
108	70	69	1.9299720405973
108	71	70	0.42669066539084
108	72	71	0.028619987852872
108	73	72	-0.057183753198478
108	74	73	-0.029144249458332
109	67	66	4.5669665819023
109	68	67	4.9718018898546
109	69	68	6.0265212158169
109	70	69	7.3415326447534
109	71	70	3.1336645143854
109	72	71	1.9596366708659
109	73	72	1.7010311945519
109	74	73	1.781322330603
110	68	67	2414.8461773879
110	69	68	2411.8156173957
110	70	69	2407.0654892415
110	71	70	2401.9492347768
110	72	71	2395.3429720888
110	73	72	2387.2616390446
110	74	73	2377.8896717046
111	68	67	1578.4618975855
111	69	68	1579.5747033991
111	70	69	1581.6511285175
111	71	70	1586.8331894474
111	72	71	1593.5244234363
111	73	72	1601.709700482
111	74	73	1611.2022122648
112	69	68	4.1832233416825
112	70	69	6.094705743054
112	71	70	8.2377684972995
112	72	71	10.383634851228
112	73	72	12.377837524719
112	74	73	13.95514258502
113	70	69	1.9114824013715
113	71	70	2.1430627542455
113	72	71	2.1458663539286
113	73	72	1.9942026734911
113	74	73	1.5773050603013
114	70	69	4.2325536946742
114	71	70	5.8136589782112
114	72	71	7.0842665770013
114	73	72	7.8311198804753
114	74	73	7.3390305246716
115	71	70	2414.8737180224
115	72	71	2411.8680781076
115	73	72	2407.1568522488
115	74	73	2402.2695560248
116	71	70	1578.4517848091
116	72	71	1579.555440099
116	73	72	1581.5585903777
116	74	73	1586.5087481523
117	72	71	4.0859593419879
117	73	72	6.0045190997058
117	74	73	7.8119547564685
118	73	72	1.9185597577179
118	74	73	1.8074356567627
119	73	72	4.1959838790125
119	74	73	4.9337141016577
120	74	73	2414.8769514603
121	74	73	1578.4505975069

